
---------- Begin Simulation Statistics ----------
sim_seconds                                  0.953648                       # Number of seconds simulated
sim_ticks                                953647576500                       # Number of ticks simulated
final_tick                               953647576500                       # Number of ticks from beginning of simulation (restored from checkpoints and never reset)
sim_freq                                 1000000000000                       # Frequency of simulated ticks
host_inst_rate                                1053355                       # Simulator instruction rate (inst/s)
host_op_rate                                  1358610                       # Simulator op (including micro ops) rate (op/s)
host_tick_rate                             2009058067                       # Simulator tick rate (ticks/s)
host_mem_usage                                 838496                       # Number of bytes of host memory used
host_seconds                                   474.67                       # Real time elapsed on the host
sim_insts                                   500000001                       # Number of instructions simulated
sim_ops                                     644897029                       # Number of ops (including micro ops) simulated
system.voltage_domain.voltage                       1                       # Voltage in Volts
system.clk_domain.clock                          1000                       # Clock period in ticks
system.mem_ctrls.bytes_read::cpu.inst           85760                       # Number of bytes read from this memory
system.mem_ctrls.bytes_read::cpu.data          365696                       # Number of bytes read from this memory
system.mem_ctrls.bytes_read::total             451456                       # Number of bytes read from this memory
system.mem_ctrls.bytes_inst_read::cpu.inst        85760                       # Number of instructions bytes read from this memory
system.mem_ctrls.bytes_inst_read::total         85760                       # Number of instructions bytes read from this memory
system.mem_ctrls.num_reads::cpu.inst             1340                       # Number of read requests responded to by this memory
system.mem_ctrls.num_reads::cpu.data             5714                       # Number of read requests responded to by this memory
system.mem_ctrls.num_reads::total                7054                       # Number of read requests responded to by this memory
system.mem_ctrls.bw_read::cpu.inst              89928                       # Total read bandwidth from this memory (bytes/s)
system.mem_ctrls.bw_read::cpu.data             383471                       # Total read bandwidth from this memory (bytes/s)
system.mem_ctrls.bw_read::total                473399                       # Total read bandwidth from this memory (bytes/s)
system.mem_ctrls.bw_inst_read::cpu.inst         89928                       # Instruction read bandwidth from this memory (bytes/s)
system.mem_ctrls.bw_inst_read::total            89928                       # Instruction read bandwidth from this memory (bytes/s)
system.mem_ctrls.bw_total::cpu.inst             89928                       # Total bandwidth to/from this memory (bytes/s)
system.mem_ctrls.bw_total::cpu.data            383471                       # Total bandwidth to/from this memory (bytes/s)
system.mem_ctrls.bw_total::total               473399                       # Total bandwidth to/from this memory (bytes/s)
system.mem_ctrls.readReqs                        7054                       # Number of read requests accepted
system.mem_ctrls.writeReqs                          0                       # Number of write requests accepted
system.mem_ctrls.readBursts                      7054                       # Number of DRAM read bursts, including those serviced by the write queue
system.mem_ctrls.writeBursts                        0                       # Number of DRAM write bursts, including those merged in the write queue
system.mem_ctrls.bytesReadDRAM                 451456                       # Total number of bytes read from DRAM
system.mem_ctrls.bytesReadWrQ                       0                       # Total number of bytes read from write queue
system.mem_ctrls.bytesWritten                       0                       # Total number of bytes written to DRAM
system.mem_ctrls.bytesReadSys                  451456                       # Total read bytes from the system interface side
system.mem_ctrls.bytesWrittenSys                    0                       # Total written bytes from the system interface side
system.mem_ctrls.servicedByWrQ                      0                       # Number of DRAM read bursts serviced by the write queue
system.mem_ctrls.mergedWrBursts                     0                       # Number of DRAM write bursts merged with an existing one
system.mem_ctrls.neitherReadNorWriteReqs            2                       # Number of requests that are neither read nor write
system.mem_ctrls.perBankRdBursts::0               315                       # Per bank write bursts
system.mem_ctrls.perBankRdBursts::1               347                       # Per bank write bursts
system.mem_ctrls.perBankRdBursts::2               440                       # Per bank write bursts
system.mem_ctrls.perBankRdBursts::3               321                       # Per bank write bursts
system.mem_ctrls.perBankRdBursts::4               472                       # Per bank write bursts
system.mem_ctrls.perBankRdBursts::5               410                       # Per bank write bursts
system.mem_ctrls.perBankRdBursts::6               342                       # Per bank write bursts
system.mem_ctrls.perBankRdBursts::7               409                       # Per bank write bursts
system.mem_ctrls.perBankRdBursts::8               508                       # Per bank write bursts
system.mem_ctrls.perBankRdBursts::9               513                       # Per bank write bursts
system.mem_ctrls.perBankRdBursts::10              555                       # Per bank write bursts
system.mem_ctrls.perBankRdBursts::11              591                       # Per bank write bursts
system.mem_ctrls.perBankRdBursts::12              493                       # Per bank write bursts
system.mem_ctrls.perBankRdBursts::13              448                       # Per bank write bursts
system.mem_ctrls.perBankRdBursts::14              440                       # Per bank write bursts
system.mem_ctrls.perBankRdBursts::15              450                       # Per bank write bursts
system.mem_ctrls.perBankWrBursts::0                 0                       # Per bank write bursts
system.mem_ctrls.perBankWrBursts::1                 0                       # Per bank write bursts
system.mem_ctrls.perBankWrBursts::2                 0                       # Per bank write bursts
system.mem_ctrls.perBankWrBursts::3                 0                       # Per bank write bursts
system.mem_ctrls.perBankWrBursts::4                 0                       # Per bank write bursts
system.mem_ctrls.perBankWrBursts::5                 0                       # Per bank write bursts
system.mem_ctrls.perBankWrBursts::6                 0                       # Per bank write bursts
system.mem_ctrls.perBankWrBursts::7                 0                       # Per bank write bursts
system.mem_ctrls.perBankWrBursts::8                 0                       # Per bank write bursts
system.mem_ctrls.perBankWrBursts::9                 0                       # Per bank write bursts
system.mem_ctrls.perBankWrBursts::10                0                       # Per bank write bursts
system.mem_ctrls.perBankWrBursts::11                0                       # Per bank write bursts
system.mem_ctrls.perBankWrBursts::12                0                       # Per bank write bursts
system.mem_ctrls.perBankWrBursts::13                0                       # Per bank write bursts
system.mem_ctrls.perBankWrBursts::14                0                       # Per bank write bursts
system.mem_ctrls.perBankWrBursts::15                0                       # Per bank write bursts
system.mem_ctrls.numRdRetry                         0                       # Number of times read queue was full causing retry
system.mem_ctrls.numWrRetry                         0                       # Number of times write queue was full causing retry
system.mem_ctrls.totGap                  339408602500                       # Total gap between requests
system.mem_ctrls.readPktSize::0                     0                       # Read request sizes (log2)
system.mem_ctrls.readPktSize::1                     0                       # Read request sizes (log2)
system.mem_ctrls.readPktSize::2                     0                       # Read request sizes (log2)
system.mem_ctrls.readPktSize::3                     0                       # Read request sizes (log2)
system.mem_ctrls.readPktSize::4                     0                       # Read request sizes (log2)
system.mem_ctrls.readPktSize::5                     0                       # Read request sizes (log2)
system.mem_ctrls.readPktSize::6                  7054                       # Read request sizes (log2)
system.mem_ctrls.writePktSize::0                    0                       # Write request sizes (log2)
system.mem_ctrls.writePktSize::1                    0                       # Write request sizes (log2)
system.mem_ctrls.writePktSize::2                    0                       # Write request sizes (log2)
system.mem_ctrls.writePktSize::3                    0                       # Write request sizes (log2)
system.mem_ctrls.writePktSize::4                    0                       # Write request sizes (log2)
system.mem_ctrls.writePktSize::5                    0                       # Write request sizes (log2)
system.mem_ctrls.writePktSize::6                    0                       # Write request sizes (log2)
system.mem_ctrls.rdQLenPdf::0                    6371                       # What read queue length does an incoming req see
system.mem_ctrls.rdQLenPdf::1                     635                       # What read queue length does an incoming req see
system.mem_ctrls.rdQLenPdf::2                      40                       # What read queue length does an incoming req see
system.mem_ctrls.rdQLenPdf::3                       8                       # What read queue length does an incoming req see
system.mem_ctrls.rdQLenPdf::4                       0                       # What read queue length does an incoming req see
system.mem_ctrls.rdQLenPdf::5                       0                       # What read queue length does an incoming req see
system.mem_ctrls.rdQLenPdf::6                       0                       # What read queue length does an incoming req see
system.mem_ctrls.rdQLenPdf::7                       0                       # What read queue length does an incoming req see
system.mem_ctrls.rdQLenPdf::8                       0                       # What read queue length does an incoming req see
system.mem_ctrls.rdQLenPdf::9                       0                       # What read queue length does an incoming req see
system.mem_ctrls.rdQLenPdf::10                      0                       # What read queue length does an incoming req see
system.mem_ctrls.rdQLenPdf::11                      0                       # What read queue length does an incoming req see
system.mem_ctrls.rdQLenPdf::12                      0                       # What read queue length does an incoming req see
system.mem_ctrls.rdQLenPdf::13                      0                       # What read queue length does an incoming req see
system.mem_ctrls.rdQLenPdf::14                      0                       # What read queue length does an incoming req see
system.mem_ctrls.rdQLenPdf::15                      0                       # What read queue length does an incoming req see
system.mem_ctrls.rdQLenPdf::16                      0                       # What read queue length does an incoming req see
system.mem_ctrls.rdQLenPdf::17                      0                       # What read queue length does an incoming req see
system.mem_ctrls.rdQLenPdf::18                      0                       # What read queue length does an incoming req see
system.mem_ctrls.rdQLenPdf::19                      0                       # What read queue length does an incoming req see
system.mem_ctrls.rdQLenPdf::20                      0                       # What read queue length does an incoming req see
system.mem_ctrls.rdQLenPdf::21                      0                       # What read queue length does an incoming req see
system.mem_ctrls.rdQLenPdf::22                      0                       # What read queue length does an incoming req see
system.mem_ctrls.rdQLenPdf::23                      0                       # What read queue length does an incoming req see
system.mem_ctrls.rdQLenPdf::24                      0                       # What read queue length does an incoming req see
system.mem_ctrls.rdQLenPdf::25                      0                       # What read queue length does an incoming req see
system.mem_ctrls.rdQLenPdf::26                      0                       # What read queue length does an incoming req see
system.mem_ctrls.rdQLenPdf::27                      0                       # What read queue length does an incoming req see
system.mem_ctrls.rdQLenPdf::28                      0                       # What read queue length does an incoming req see
system.mem_ctrls.rdQLenPdf::29                      0                       # What read queue length does an incoming req see
system.mem_ctrls.rdQLenPdf::30                      0                       # What read queue length does an incoming req see
system.mem_ctrls.rdQLenPdf::31                      0                       # What read queue length does an incoming req see
system.mem_ctrls.wrQLenPdf::0                       0                       # What write queue length does an incoming req see
system.mem_ctrls.wrQLenPdf::1                       0                       # What write queue length does an incoming req see
system.mem_ctrls.wrQLenPdf::2                       0                       # What write queue length does an incoming req see
system.mem_ctrls.wrQLenPdf::3                       0                       # What write queue length does an incoming req see
system.mem_ctrls.wrQLenPdf::4                       0                       # What write queue length does an incoming req see
system.mem_ctrls.wrQLenPdf::5                       0                       # What write queue length does an incoming req see
system.mem_ctrls.wrQLenPdf::6                       0                       # What write queue length does an incoming req see
system.mem_ctrls.wrQLenPdf::7                       0                       # What write queue length does an incoming req see
system.mem_ctrls.wrQLenPdf::8                       0                       # What write queue length does an incoming req see
system.mem_ctrls.wrQLenPdf::9                       0                       # What write queue length does an incoming req see
system.mem_ctrls.wrQLenPdf::10                      0                       # What write queue length does an incoming req see
system.mem_ctrls.wrQLenPdf::11                      0                       # What write queue length does an incoming req see
system.mem_ctrls.wrQLenPdf::12                      0                       # What write queue length does an incoming req see
system.mem_ctrls.wrQLenPdf::13                      0                       # What write queue length does an incoming req see
system.mem_ctrls.wrQLenPdf::14                      0                       # What write queue length does an incoming req see
system.mem_ctrls.wrQLenPdf::15                      0                       # What write queue length does an incoming req see
system.mem_ctrls.wrQLenPdf::16                      0                       # What write queue length does an incoming req see
system.mem_ctrls.wrQLenPdf::17                      0                       # What write queue length does an incoming req see
system.mem_ctrls.wrQLenPdf::18                      0                       # What write queue length does an incoming req see
system.mem_ctrls.wrQLenPdf::19                      0                       # What write queue length does an incoming req see
system.mem_ctrls.wrQLenPdf::20                      0                       # What write queue length does an incoming req see
system.mem_ctrls.wrQLenPdf::21                      0                       # What write queue length does an incoming req see
system.mem_ctrls.wrQLenPdf::22                      0                       # What write queue length does an incoming req see
system.mem_ctrls.wrQLenPdf::23                      0                       # What write queue length does an incoming req see
system.mem_ctrls.wrQLenPdf::24                      0                       # What write queue length does an incoming req see
system.mem_ctrls.wrQLenPdf::25                      0                       # What write queue length does an incoming req see
system.mem_ctrls.wrQLenPdf::26                      0                       # What write queue length does an incoming req see
system.mem_ctrls.wrQLenPdf::27                      0                       # What write queue length does an incoming req see
system.mem_ctrls.wrQLenPdf::28                      0                       # What write queue length does an incoming req see
system.mem_ctrls.wrQLenPdf::29                      0                       # What write queue length does an incoming req see
system.mem_ctrls.wrQLenPdf::30                      0                       # What write queue length does an incoming req see
system.mem_ctrls.wrQLenPdf::31                      0                       # What write queue length does an incoming req see
system.mem_ctrls.wrQLenPdf::32                      0                       # What write queue length does an incoming req see
system.mem_ctrls.wrQLenPdf::33                      0                       # What write queue length does an incoming req see
system.mem_ctrls.wrQLenPdf::34                      0                       # What write queue length does an incoming req see
system.mem_ctrls.wrQLenPdf::35                      0                       # What write queue length does an incoming req see
system.mem_ctrls.wrQLenPdf::36                      0                       # What write queue length does an incoming req see
system.mem_ctrls.wrQLenPdf::37                      0                       # What write queue length does an incoming req see
system.mem_ctrls.wrQLenPdf::38                      0                       # What write queue length does an incoming req see
system.mem_ctrls.wrQLenPdf::39                      0                       # What write queue length does an incoming req see
system.mem_ctrls.wrQLenPdf::40                      0                       # What write queue length does an incoming req see
system.mem_ctrls.wrQLenPdf::41                      0                       # What write queue length does an incoming req see
system.mem_ctrls.wrQLenPdf::42                      0                       # What write queue length does an incoming req see
system.mem_ctrls.wrQLenPdf::43                      0                       # What write queue length does an incoming req see
system.mem_ctrls.wrQLenPdf::44                      0                       # What write queue length does an incoming req see
system.mem_ctrls.wrQLenPdf::45                      0                       # What write queue length does an incoming req see
system.mem_ctrls.wrQLenPdf::46                      0                       # What write queue length does an incoming req see
system.mem_ctrls.wrQLenPdf::47                      0                       # What write queue length does an incoming req see
system.mem_ctrls.wrQLenPdf::48                      0                       # What write queue length does an incoming req see
system.mem_ctrls.wrQLenPdf::49                      0                       # What write queue length does an incoming req see
system.mem_ctrls.wrQLenPdf::50                      0                       # What write queue length does an incoming req see
system.mem_ctrls.wrQLenPdf::51                      0                       # What write queue length does an incoming req see
system.mem_ctrls.wrQLenPdf::52                      0                       # What write queue length does an incoming req see
system.mem_ctrls.wrQLenPdf::53                      0                       # What write queue length does an incoming req see
system.mem_ctrls.wrQLenPdf::54                      0                       # What write queue length does an incoming req see
system.mem_ctrls.wrQLenPdf::55                      0                       # What write queue length does an incoming req see
system.mem_ctrls.wrQLenPdf::56                      0                       # What write queue length does an incoming req see
system.mem_ctrls.wrQLenPdf::57                      0                       # What write queue length does an incoming req see
system.mem_ctrls.wrQLenPdf::58                      0                       # What write queue length does an incoming req see
system.mem_ctrls.wrQLenPdf::59                      0                       # What write queue length does an incoming req see
system.mem_ctrls.wrQLenPdf::60                      0                       # What write queue length does an incoming req see
system.mem_ctrls.wrQLenPdf::61                      0                       # What write queue length does an incoming req see
system.mem_ctrls.wrQLenPdf::62                      0                       # What write queue length does an incoming req see
system.mem_ctrls.wrQLenPdf::63                      0                       # What write queue length does an incoming req see
system.mem_ctrls.bytesPerActivate::samples         2465                       # Bytes accessed per row activation
system.mem_ctrls.bytesPerActivate::mean    183.146450                       # Bytes accessed per row activation
system.mem_ctrls.bytesPerActivate::gmean   103.438319                       # Bytes accessed per row activation
system.mem_ctrls.bytesPerActivate::stdev   271.999472                       # Bytes accessed per row activation
system.mem_ctrls.bytesPerActivate::0-127         1774     71.97%     71.97% # Bytes accessed per row activation
system.mem_ctrls.bytesPerActivate::128-255          264     10.71%     82.68% # Bytes accessed per row activation
system.mem_ctrls.bytesPerActivate::256-383          100      4.06%     86.73% # Bytes accessed per row activation
system.mem_ctrls.bytesPerActivate::384-511           56      2.27%     89.01% # Bytes accessed per row activation
system.mem_ctrls.bytesPerActivate::512-639           30      1.22%     90.22% # Bytes accessed per row activation
system.mem_ctrls.bytesPerActivate::640-767           18      0.73%     90.95% # Bytes accessed per row activation
system.mem_ctrls.bytesPerActivate::768-895           32      1.30%     92.25% # Bytes accessed per row activation
system.mem_ctrls.bytesPerActivate::896-1023           17      0.69%     92.94% # Bytes accessed per row activation
system.mem_ctrls.bytesPerActivate::1024-1151          174      7.06%    100.00% # Bytes accessed per row activation
system.mem_ctrls.bytesPerActivate::total         2465                       # Bytes accessed per row activation
system.mem_ctrls.totQLat                     81798750                       # Total ticks spent queuing
system.mem_ctrls.totMemAccLat               214061250                       # Total ticks spent from burst creation until serviced by the DRAM
system.mem_ctrls.totBusLat                   35270000                       # Total ticks spent in databus transfers
system.mem_ctrls.avgQLat                     11596.08                       # Average queueing delay per DRAM burst
system.mem_ctrls.avgBusLat                    5000.00                       # Average bus latency per DRAM burst
system.mem_ctrls.avgMemAccLat                30346.08                       # Average memory access latency per DRAM burst
system.mem_ctrls.avgRdBW                         0.47                       # Average DRAM read bandwidth in MiByte/s
system.mem_ctrls.avgWrBW                         0.00                       # Average achieved write bandwidth in MiByte/s
system.mem_ctrls.avgRdBWSys                      0.47                       # Average system read bandwidth in MiByte/s
system.mem_ctrls.avgWrBWSys                      0.00                       # Average system write bandwidth in MiByte/s
system.mem_ctrls.peakBW                      12800.00                       # Theoretical peak bandwidth in MiByte/s
system.mem_ctrls.busUtil                         0.00                       # Data bus utilization in percentage
system.mem_ctrls.busUtilRead                     0.00                       # Data bus utilization in percentage for reads
system.mem_ctrls.busUtilWrite                    0.00                       # Data bus utilization in percentage for writes
system.mem_ctrls.avgRdQLen                       1.01                       # Average read queue length when enqueuing
system.mem_ctrls.avgWrQLen                       0.00                       # Average write queue length when enqueuing
system.mem_ctrls.readRowHits                     4589                       # Number of row buffer hits during reads
system.mem_ctrls.writeRowHits                       0                       # Number of row buffer hits during writes
system.mem_ctrls.readRowHitRate                 65.06                       # Row buffer hit rate for reads
system.mem_ctrls.writeRowHitRate                  nan                       # Row buffer hit rate for writes
system.mem_ctrls.avgGap                   48115764.46                       # Average gap between requests
system.mem_ctrls.pageHitRate                    65.06                       # Row buffer hit rate, read and write combined
system.mem_ctrls_0.actEnergy                  8678880                       # Energy for activate commands per rank (pJ)
system.mem_ctrls_0.preEnergy                  4735500                       # Energy for precharge commands per rank (pJ)
system.mem_ctrls_0.readEnergy                23836800                       # Energy for read commands per rank (pJ)
system.mem_ctrls_0.writeEnergy                      0                       # Energy for write commands per rank (pJ)
system.mem_ctrls_0.refreshEnergy          62287411680                       # Energy for refresh commands per rank (pJ)
system.mem_ctrls_0.actBackEnergy          22860518040                       # Energy for active background per rank (pJ)
system.mem_ctrls_0.preBackEnergy         552133658250                       # Energy for precharge background per rank (pJ)
system.mem_ctrls_0.totalEnergy           637318839150                       # Total energy per rank (pJ)
system.mem_ctrls_0.averagePower            668.298082                       # Core power per rank (mW)
system.mem_ctrls_0.memoryStateTime::IDLE 918529284250                       # Time in different power states
system.mem_ctrls_0.memoryStateTime::REF   31844280000                       # Time in different power states
system.mem_ctrls_0.memoryStateTime::PRE_PDN            0                       # Time in different power states
system.mem_ctrls_0.memoryStateTime::ACT    3271023250                       # Time in different power states
system.mem_ctrls_0.memoryStateTime::ACT_PDN            0                       # Time in different power states
system.mem_ctrls_1.actEnergy                  9956520                       # Energy for activate commands per rank (pJ)
system.mem_ctrls_1.preEnergy                  5432625                       # Energy for precharge commands per rank (pJ)
system.mem_ctrls_1.readEnergy                31184400                       # Energy for read commands per rank (pJ)
system.mem_ctrls_1.writeEnergy                      0                       # Energy for write commands per rank (pJ)
system.mem_ctrls_1.refreshEnergy          62287411680                       # Energy for refresh commands per rank (pJ)
system.mem_ctrls_1.actBackEnergy          23236239240                       # Energy for active background per rank (pJ)
system.mem_ctrls_1.preBackEnergy         551804078250                       # Energy for precharge background per rank (pJ)
system.mem_ctrls_1.totalEnergy           637374302715                       # Total energy per rank (pJ)
system.mem_ctrls_1.averagePower            668.356241                       # Core power per rank (mW)
system.mem_ctrls_1.memoryStateTime::IDLE 917979123250                       # Time in different power states
system.mem_ctrls_1.memoryStateTime::REF   31844280000                       # Time in different power states
system.mem_ctrls_1.memoryStateTime::PRE_PDN            0                       # Time in different power states
system.mem_ctrls_1.memoryStateTime::ACT    3821184250                       # Time in different power states
system.mem_ctrls_1.memoryStateTime::ACT_PDN            0                       # Time in different power states
system.cpu.branchPred.lookups                27605403                       # Number of BP lookups
system.cpu.branchPred.condPredicted          27605403                       # Number of conditional branches predicted
system.cpu.branchPred.condIncorrect           2924061                       # Number of conditional branches incorrect
system.cpu.branchPred.BTBLookups             20362875                       # Number of BTB lookups
system.cpu.branchPred.BTBHits                20193210                       # Number of BTB hits
system.cpu.branchPred.BTBCorrect                    0                       # Number of correct BTB predictions (this stat may not work properly.
system.cpu.branchPred.BTBHitPct             99.166793                       # BTB Hit Percentage
system.cpu.branchPred.BTBMissPct             0.833207                       # BTB Miss Percentage
system.cpu.branchPred.BranchMispredPercent    10.592350                       # Branch Mispredict Percentage
system.cpu.branchPred.usedRAS                  763541                       # Number of times the RAS was used to get a target.
system.cpu.branchPred.RASInCorrect               2809                       # Number of incorrect RAS predictions.
system.cpu_voltage_domain.voltage                   1                       # Voltage in Volts
system.cpu_clk_domain.clock                       500                       # Clock period in ticks
system.cpu.apic_clk_domain.clock                 8000                       # Clock period in ticks
system.cpu.workload.num_syscalls                   37                       # Number of system calls
system.cpu.numCycles                       1907295153                       # number of cpu cycles simulated
system.cpu.numWorkItemsStarted                      0                       # number of work items this cpu started
system.cpu.numWorkItemsCompleted                    0                       # number of work items this cpu completed
system.cpu.committedInsts                   500000001                       # Number of instructions committed
system.cpu.committedOps                     644897029                       # Number of ops (including micro ops) committed
system.cpu.num_int_alu_accesses             625874352                       # Number of integer alu accesses
system.cpu.num_fp_alu_accesses               27676338                       # Number of float alu accesses
system.cpu.num_func_calls                     1531189                       # number of times a function call or return occured
system.cpu.num_conditional_control_insts     25302545                       # number of instructions that are conditional controls
system.cpu.num_int_insts                    625874352                       # number of integer instructions
system.cpu.num_fp_insts                      27676338                       # number of float instructions
system.cpu.num_int_register_reads          1467550632                       # number of times the integer registers were read
system.cpu.num_int_register_writes          569495275                       # number of times the integer registers were written
system.cpu.num_fp_register_reads             21880001                       # number of times the floating registers were read
system.cpu.num_fp_register_writes            23672751                       # number of times the floating registers were written
system.cpu.num_cc_register_reads            187333386                       # number of times the CC registers were read
system.cpu.num_cc_register_writes           260734911                       # number of times the CC registers were written
system.cpu.num_mem_refs                     254894287                       # number of memory refs
system.cpu.num_load_insts                   219204101                       # Number of load instructions
system.cpu.num_store_insts                   35690186                       # Number of store instructions
system.cpu.num_idle_cycles                          0                       # Number of idle cycles
system.cpu.num_busy_cycles                 1907295153                       # Number of busy cycles
system.cpu.not_idle_fraction                        1                       # Percentage of non-idle cycles
system.cpu.idle_fraction                            0                       # Percentage of idle cycles
system.cpu.Branches                          27605403                       # Number of branches fetched
system.cpu.predictedBranches                 20956751                       # Number of branches predicted as taken
system.cpu.BranchMispred                      2924061                       # Number of branch mispredictions
system.cpu.BranchMispredPercent             10.592350                       # Percentage of Mispredicted Branches
system.cpu.op_class::No_OpClass               1502854      0.23%      0.23% # Class of executed instruction
system.cpu.op_class::IntAlu                 363721688     56.40%     56.63% # Class of executed instruction
system.cpu.op_class::IntMult                   618823      0.10%     56.73% # Class of executed instruction
system.cpu.op_class::IntDiv                   6323450      0.98%     57.71% # Class of executed instruction
system.cpu.op_class::FloatAdd                17835927      2.77%     60.48% # Class of executed instruction
system.cpu.op_class::FloatCmp                       0      0.00%     60.48% # Class of executed instruction
system.cpu.op_class::FloatCvt                       0      0.00%     60.48% # Class of executed instruction
system.cpu.op_class::FloatMult                      0      0.00%     60.48% # Class of executed instruction
system.cpu.op_class::FloatDiv                       0      0.00%     60.48% # Class of executed instruction
system.cpu.op_class::FloatSqrt                      0      0.00%     60.48% # Class of executed instruction
system.cpu.op_class::SimdAdd                        0      0.00%     60.48% # Class of executed instruction
system.cpu.op_class::SimdAddAcc                     0      0.00%     60.48% # Class of executed instruction
system.cpu.op_class::SimdAlu                        0      0.00%     60.48% # Class of executed instruction
system.cpu.op_class::SimdCmp                        0      0.00%     60.48% # Class of executed instruction
system.cpu.op_class::SimdCvt                        0      0.00%     60.48% # Class of executed instruction
system.cpu.op_class::SimdMisc                       0      0.00%     60.48% # Class of executed instruction
system.cpu.op_class::SimdMult                       0      0.00%     60.48% # Class of executed instruction
system.cpu.op_class::SimdMultAcc                    0      0.00%     60.48% # Class of executed instruction
system.cpu.op_class::SimdShift                      0      0.00%     60.48% # Class of executed instruction
system.cpu.op_class::SimdShiftAcc                   0      0.00%     60.48% # Class of executed instruction
system.cpu.op_class::SimdSqrt                       0      0.00%     60.48% # Class of executed instruction
system.cpu.op_class::SimdFloatAdd                   0      0.00%     60.48% # Class of executed instruction
system.cpu.op_class::SimdFloatAlu                   0      0.00%     60.48% # Class of executed instruction
system.cpu.op_class::SimdFloatCmp                   0      0.00%     60.48% # Class of executed instruction
system.cpu.op_class::SimdFloatCvt                   0      0.00%     60.48% # Class of executed instruction
system.cpu.op_class::SimdFloatDiv                   0      0.00%     60.48% # Class of executed instruction
system.cpu.op_class::SimdFloatMisc                  0      0.00%     60.48% # Class of executed instruction
system.cpu.op_class::SimdFloatMult                  0      0.00%     60.48% # Class of executed instruction
system.cpu.op_class::SimdFloatMultAcc               0      0.00%     60.48% # Class of executed instruction
system.cpu.op_class::SimdFloatSqrt                  0      0.00%     60.48% # Class of executed instruction
system.cpu.op_class::MemRead                219204101     33.99%     94.47% # Class of executed instruction
system.cpu.op_class::MemWrite                35690186      5.53%    100.00% # Class of executed instruction
system.cpu.op_class::IprAccess                      0      0.00%    100.00% # Class of executed instruction
system.cpu.op_class::InstPrefetch                   0      0.00%    100.00% # Class of executed instruction
system.cpu.op_class::total                  644897029                       # Class of executed instruction
system.cpu.dcache.tags.replacements            197477                       # number of replacements
system.cpu.dcache.tags.tagsinuse          2043.008585                       # Cycle average of tags in use
system.cpu.dcache.tags.total_refs           254694870                       # Total number of references to valid blocks.
system.cpu.dcache.tags.sampled_refs            199525                       # Sample count of references to valid blocks.
system.cpu.dcache.tags.avg_refs           1276.506052                       # Average number of references to valid blocks.
system.cpu.dcache.tags.warmup_cycle       18880071500                       # Cycle when the warmup percentage was hit.
system.cpu.dcache.tags.occ_blocks::cpu.data  2043.008585                       # Average occupied blocks per requestor
system.cpu.dcache.tags.occ_percent::cpu.data     0.997563                       # Average percentage of cache occupancy
system.cpu.dcache.tags.occ_percent::total     0.997563                       # Average percentage of cache occupancy
system.cpu.dcache.tags.occ_task_id_blocks::1024         2048                       # Occupied blocks per task id
system.cpu.dcache.tags.age_task_id_blocks_1024::0            3                       # Occupied blocks per task id
system.cpu.dcache.tags.age_task_id_blocks_1024::1           30                       # Occupied blocks per task id
system.cpu.dcache.tags.age_task_id_blocks_1024::2          194                       # Occupied blocks per task id
system.cpu.dcache.tags.age_task_id_blocks_1024::3          486                       # Occupied blocks per task id
system.cpu.dcache.tags.age_task_id_blocks_1024::4         1335                       # Occupied blocks per task id
system.cpu.dcache.tags.occ_task_id_percent::1024            1                       # Percentage of cache occupancy per task id
system.cpu.dcache.tags.tag_accesses         509988315                       # Number of tag accesses
system.cpu.dcache.tags.data_accesses        509988315                       # Number of data accesses
system.cpu.dcache.ReadReq_hits::cpu.data    219137907                       # number of ReadReq hits
system.cpu.dcache.ReadReq_hits::total       219137907                       # number of ReadReq hits
system.cpu.dcache.WriteReq_hits::cpu.data     35554830                       # number of WriteReq hits
system.cpu.dcache.WriteReq_hits::total       35554830                       # number of WriteReq hits
system.cpu.dcache.SoftPFReq_hits::cpu.data         2133                       # number of SoftPFReq hits
system.cpu.dcache.SoftPFReq_hits::total          2133                       # number of SoftPFReq hits
system.cpu.dcache.demand_hits::cpu.data     254692737                       # number of demand (read+write) hits
system.cpu.dcache.demand_hits::total        254692737                       # number of demand (read+write) hits
system.cpu.dcache.overall_hits::cpu.data    254694870                       # number of overall hits
system.cpu.dcache.overall_hits::total       254694870                       # number of overall hits
system.cpu.dcache.ReadReq_misses::cpu.data        60107                       # number of ReadReq misses
system.cpu.dcache.ReadReq_misses::total         60107                       # number of ReadReq misses
system.cpu.dcache.WriteReq_misses::cpu.data       135433                       # number of WriteReq misses
system.cpu.dcache.WriteReq_misses::total       135433                       # number of WriteReq misses
system.cpu.dcache.SoftPFReq_misses::cpu.data         3985                       # number of SoftPFReq misses
system.cpu.dcache.SoftPFReq_misses::total         3985                       # number of SoftPFReq misses
system.cpu.dcache.demand_misses::cpu.data       195540                       # number of demand (read+write) misses
system.cpu.dcache.demand_misses::total         195540                       # number of demand (read+write) misses
system.cpu.dcache.overall_misses::cpu.data       199525                       # number of overall misses
system.cpu.dcache.overall_misses::total        199525                       # number of overall misses
system.cpu.dcache.ReadReq_miss_latency::cpu.data    825732500                       # number of ReadReq miss cycles
system.cpu.dcache.ReadReq_miss_latency::total    825732500                       # number of ReadReq miss cycles
system.cpu.dcache.WriteReq_miss_latency::cpu.data   2035134000                       # number of WriteReq miss cycles
system.cpu.dcache.WriteReq_miss_latency::total   2035134000                       # number of WriteReq miss cycles
system.cpu.dcache.demand_miss_latency::cpu.data   2860866500                       # number of demand (read+write) miss cycles
system.cpu.dcache.demand_miss_latency::total   2860866500                       # number of demand (read+write) miss cycles
system.cpu.dcache.overall_miss_latency::cpu.data   2860866500                       # number of overall miss cycles
system.cpu.dcache.overall_miss_latency::total   2860866500                       # number of overall miss cycles
system.cpu.dcache.ReadReq_accesses::cpu.data    219198014                       # number of ReadReq accesses(hits+misses)
system.cpu.dcache.ReadReq_accesses::total    219198014                       # number of ReadReq accesses(hits+misses)
system.cpu.dcache.WriteReq_accesses::cpu.data     35690263                       # number of WriteReq accesses(hits+misses)
system.cpu.dcache.WriteReq_accesses::total     35690263                       # number of WriteReq accesses(hits+misses)
system.cpu.dcache.SoftPFReq_accesses::cpu.data         6118                       # number of SoftPFReq accesses(hits+misses)
system.cpu.dcache.SoftPFReq_accesses::total         6118                       # number of SoftPFReq accesses(hits+misses)
system.cpu.dcache.demand_accesses::cpu.data    254888277                       # number of demand (read+write) accesses
system.cpu.dcache.demand_accesses::total    254888277                       # number of demand (read+write) accesses
system.cpu.dcache.overall_accesses::cpu.data    254894395                       # number of overall (read+write) accesses
system.cpu.dcache.overall_accesses::total    254894395                       # number of overall (read+write) accesses
system.cpu.dcache.ReadReq_miss_rate::cpu.data     0.000274                       # miss rate for ReadReq accesses
system.cpu.dcache.ReadReq_miss_rate::total     0.000274                       # miss rate for ReadReq accesses
system.cpu.dcache.WriteReq_miss_rate::cpu.data     0.003795                       # miss rate for WriteReq accesses
system.cpu.dcache.WriteReq_miss_rate::total     0.003795                       # miss rate for WriteReq accesses
system.cpu.dcache.SoftPFReq_miss_rate::cpu.data     0.651357                       # miss rate for SoftPFReq accesses
system.cpu.dcache.SoftPFReq_miss_rate::total     0.651357                       # miss rate for SoftPFReq accesses
system.cpu.dcache.demand_miss_rate::cpu.data     0.000767                       # miss rate for demand accesses
system.cpu.dcache.demand_miss_rate::total     0.000767                       # miss rate for demand accesses
system.cpu.dcache.overall_miss_rate::cpu.data     0.000783                       # miss rate for overall accesses
system.cpu.dcache.overall_miss_rate::total     0.000783                       # miss rate for overall accesses
system.cpu.dcache.ReadReq_avg_miss_latency::cpu.data 13737.709418                       # average ReadReq miss latency
system.cpu.dcache.ReadReq_avg_miss_latency::total 13737.709418                       # average ReadReq miss latency
system.cpu.dcache.WriteReq_avg_miss_latency::cpu.data 15026.869375                       # average WriteReq miss latency
system.cpu.dcache.WriteReq_avg_miss_latency::total 15026.869375                       # average WriteReq miss latency
system.cpu.dcache.demand_avg_miss_latency::cpu.data 14630.594763                       # average overall miss latency
system.cpu.dcache.demand_avg_miss_latency::total 14630.594763                       # average overall miss latency
system.cpu.dcache.overall_avg_miss_latency::cpu.data 14338.386167                       # average overall miss latency
system.cpu.dcache.overall_avg_miss_latency::total 14338.386167                       # average overall miss latency
system.cpu.dcache.blocked_cycles::no_mshrs        12183                       # number of cycles access was blocked
system.cpu.dcache.blocked_cycles::no_targets            0                       # number of cycles access was blocked
system.cpu.dcache.blocked::no_mshrs               433                       # number of cycles access was blocked
system.cpu.dcache.blocked::no_targets               0                       # number of cycles access was blocked
system.cpu.dcache.avg_blocked_cycles::no_mshrs    28.136259                       # average number of cycles each access was blocked
system.cpu.dcache.avg_blocked_cycles::no_targets          nan                       # average number of cycles each access was blocked
system.cpu.dcache.fast_writes                       0                       # number of fast writes performed
system.cpu.dcache.cache_copies                      0                       # number of cache copies performed
system.cpu.dcache.writebacks::writebacks       193827                       # number of writebacks
system.cpu.dcache.writebacks::total            193827                       # number of writebacks
system.cpu.dcache.ReadReq_mshr_misses::cpu.data        60107                       # number of ReadReq MSHR misses
system.cpu.dcache.ReadReq_mshr_misses::total        60107                       # number of ReadReq MSHR misses
system.cpu.dcache.WriteReq_mshr_misses::cpu.data       135433                       # number of WriteReq MSHR misses
system.cpu.dcache.WriteReq_mshr_misses::total       135433                       # number of WriteReq MSHR misses
system.cpu.dcache.SoftPFReq_mshr_misses::cpu.data         3985                       # number of SoftPFReq MSHR misses
system.cpu.dcache.SoftPFReq_mshr_misses::total         3985                       # number of SoftPFReq MSHR misses
system.cpu.dcache.demand_mshr_misses::cpu.data       195540                       # number of demand (read+write) MSHR misses
system.cpu.dcache.demand_mshr_misses::total       195540                       # number of demand (read+write) MSHR misses
system.cpu.dcache.overall_mshr_misses::cpu.data       199525                       # number of overall MSHR misses
system.cpu.dcache.overall_mshr_misses::total       199525                       # number of overall MSHR misses
system.cpu.dcache.ReadReq_mshr_miss_latency::cpu.data    765625500                       # number of ReadReq MSHR miss cycles
system.cpu.dcache.ReadReq_mshr_miss_latency::total    765625500                       # number of ReadReq MSHR miss cycles
system.cpu.dcache.WriteReq_mshr_miss_latency::cpu.data   1899701000                       # number of WriteReq MSHR miss cycles
system.cpu.dcache.WriteReq_mshr_miss_latency::total   1899701000                       # number of WriteReq MSHR miss cycles
system.cpu.dcache.SoftPFReq_mshr_miss_latency::cpu.data    133125000                       # number of SoftPFReq MSHR miss cycles
system.cpu.dcache.SoftPFReq_mshr_miss_latency::total    133125000                       # number of SoftPFReq MSHR miss cycles
system.cpu.dcache.demand_mshr_miss_latency::cpu.data   2665326500                       # number of demand (read+write) MSHR miss cycles
system.cpu.dcache.demand_mshr_miss_latency::total   2665326500                       # number of demand (read+write) MSHR miss cycles
system.cpu.dcache.overall_mshr_miss_latency::cpu.data   2798451500                       # number of overall MSHR miss cycles
system.cpu.dcache.overall_mshr_miss_latency::total   2798451500                       # number of overall MSHR miss cycles
system.cpu.dcache.ReadReq_mshr_miss_rate::cpu.data     0.000274                       # mshr miss rate for ReadReq accesses
system.cpu.dcache.ReadReq_mshr_miss_rate::total     0.000274                       # mshr miss rate for ReadReq accesses
system.cpu.dcache.WriteReq_mshr_miss_rate::cpu.data     0.003795                       # mshr miss rate for WriteReq accesses
system.cpu.dcache.WriteReq_mshr_miss_rate::total     0.003795                       # mshr miss rate for WriteReq accesses
system.cpu.dcache.SoftPFReq_mshr_miss_rate::cpu.data     0.651357                       # mshr miss rate for SoftPFReq accesses
system.cpu.dcache.SoftPFReq_mshr_miss_rate::total     0.651357                       # mshr miss rate for SoftPFReq accesses
system.cpu.dcache.demand_mshr_miss_rate::cpu.data     0.000767                       # mshr miss rate for demand accesses
system.cpu.dcache.demand_mshr_miss_rate::total     0.000767                       # mshr miss rate for demand accesses
system.cpu.dcache.overall_mshr_miss_rate::cpu.data     0.000783                       # mshr miss rate for overall accesses
system.cpu.dcache.overall_mshr_miss_rate::total     0.000783                       # mshr miss rate for overall accesses
system.cpu.dcache.ReadReq_avg_mshr_miss_latency::cpu.data 12737.709418                       # average ReadReq mshr miss latency
system.cpu.dcache.ReadReq_avg_mshr_miss_latency::total 12737.709418                       # average ReadReq mshr miss latency
system.cpu.dcache.WriteReq_avg_mshr_miss_latency::cpu.data 14026.869375                       # average WriteReq mshr miss latency
system.cpu.dcache.WriteReq_avg_mshr_miss_latency::total 14026.869375                       # average WriteReq mshr miss latency
system.cpu.dcache.SoftPFReq_avg_mshr_miss_latency::cpu.data 33406.524467                       # average SoftPFReq mshr miss latency
system.cpu.dcache.SoftPFReq_avg_mshr_miss_latency::total 33406.524467                       # average SoftPFReq mshr miss latency
system.cpu.dcache.demand_avg_mshr_miss_latency::cpu.data 13630.594763                       # average overall mshr miss latency
system.cpu.dcache.demand_avg_mshr_miss_latency::total 13630.594763                       # average overall mshr miss latency
system.cpu.dcache.overall_avg_mshr_miss_latency::cpu.data 14025.568225                       # average overall mshr miss latency
system.cpu.dcache.overall_avg_mshr_miss_latency::total 14025.568225                       # average overall mshr miss latency
system.cpu.dcache.no_allocate_misses                0                       # Number of misses that were no-allocate
system.cpu.dtb_walker_cache.tags.replacements            0                       # number of replacements
system.cpu.dtb_walker_cache.tags.tagsinuse            0                       # Cycle average of tags in use
system.cpu.dtb_walker_cache.tags.total_refs            0                       # Total number of references to valid blocks.
system.cpu.dtb_walker_cache.tags.sampled_refs            0                       # Sample count of references to valid blocks.
system.cpu.dtb_walker_cache.tags.avg_refs          nan                       # Average number of references to valid blocks.
system.cpu.dtb_walker_cache.tags.warmup_cycle            0                       # Cycle when the warmup percentage was hit.
system.cpu.dtb_walker_cache.tags.tag_accesses            0                       # Number of tag accesses
system.cpu.dtb_walker_cache.tags.data_accesses            0                       # Number of data accesses
system.cpu.dtb_walker_cache.blocked_cycles::no_mshrs            0                       # number of cycles access was blocked
system.cpu.dtb_walker_cache.blocked_cycles::no_targets            0                       # number of cycles access was blocked
system.cpu.dtb_walker_cache.blocked::no_mshrs            0                       # number of cycles access was blocked
system.cpu.dtb_walker_cache.blocked::no_targets            0                       # number of cycles access was blocked
system.cpu.dtb_walker_cache.avg_blocked_cycles::no_mshrs          nan                       # average number of cycles each access was blocked
system.cpu.dtb_walker_cache.avg_blocked_cycles::no_targets          nan                       # average number of cycles each access was blocked
system.cpu.dtb_walker_cache.fast_writes             0                       # number of fast writes performed
system.cpu.dtb_walker_cache.cache_copies            0                       # number of cache copies performed
system.cpu.dtb_walker_cache.no_allocate_misses            0                       # Number of misses that were no-allocate
system.cpu.icache.tags.replacements               170                       # number of replacements
system.cpu.icache.tags.tagsinuse          1179.915108                       # Cycle average of tags in use
system.cpu.icache.tags.total_refs           695976585                       # Total number of references to valid blocks.
system.cpu.icache.tags.sampled_refs              1352                       # Sample count of references to valid blocks.
system.cpu.icache.tags.avg_refs          514775.580621                       # Average number of references to valid blocks.
system.cpu.icache.tags.warmup_cycle                 0                       # Cycle when the warmup percentage was hit.
system.cpu.icache.tags.occ_blocks::cpu.inst  1179.915108                       # Average occupied blocks per requestor
system.cpu.icache.tags.occ_percent::cpu.inst     0.576130                       # Average percentage of cache occupancy
system.cpu.icache.tags.occ_percent::total     0.576130                       # Average percentage of cache occupancy
system.cpu.icache.tags.occ_task_id_blocks::1024         1182                       # Occupied blocks per task id
system.cpu.icache.tags.age_task_id_blocks_1024::4         1182                       # Occupied blocks per task id
system.cpu.icache.tags.occ_task_id_percent::1024     0.577148                       # Percentage of cache occupancy per task id
system.cpu.icache.tags.tag_accesses        1391957226                       # Number of tag accesses
system.cpu.icache.tags.data_accesses       1391957226                       # Number of data accesses
system.cpu.icache.ReadReq_hits::cpu.inst    695976585                       # number of ReadReq hits
system.cpu.icache.ReadReq_hits::total       695976585                       # number of ReadReq hits
system.cpu.icache.demand_hits::cpu.inst     695976585                       # number of demand (read+write) hits
system.cpu.icache.demand_hits::total        695976585                       # number of demand (read+write) hits
system.cpu.icache.overall_hits::cpu.inst    695976585                       # number of overall hits
system.cpu.icache.overall_hits::total       695976585                       # number of overall hits
system.cpu.icache.ReadReq_misses::cpu.inst         1352                       # number of ReadReq misses
system.cpu.icache.ReadReq_misses::total          1352                       # number of ReadReq misses
system.cpu.icache.demand_misses::cpu.inst         1352                       # number of demand (read+write) misses
system.cpu.icache.demand_misses::total           1352                       # number of demand (read+write) misses
system.cpu.icache.overall_misses::cpu.inst         1352                       # number of overall misses
system.cpu.icache.overall_misses::total          1352                       # number of overall misses
system.cpu.icache.ReadReq_miss_latency::cpu.inst    105888000                       # number of ReadReq miss cycles
system.cpu.icache.ReadReq_miss_latency::total    105888000                       # number of ReadReq miss cycles
system.cpu.icache.demand_miss_latency::cpu.inst    105888000                       # number of demand (read+write) miss cycles
system.cpu.icache.demand_miss_latency::total    105888000                       # number of demand (read+write) miss cycles
system.cpu.icache.overall_miss_latency::cpu.inst    105888000                       # number of overall miss cycles
system.cpu.icache.overall_miss_latency::total    105888000                       # number of overall miss cycles
system.cpu.icache.ReadReq_accesses::cpu.inst    695977937                       # number of ReadReq accesses(hits+misses)
system.cpu.icache.ReadReq_accesses::total    695977937                       # number of ReadReq accesses(hits+misses)
system.cpu.icache.demand_accesses::cpu.inst    695977937                       # number of demand (read+write) accesses
system.cpu.icache.demand_accesses::total    695977937                       # number of demand (read+write) accesses
system.cpu.icache.overall_accesses::cpu.inst    695977937                       # number of overall (read+write) accesses
system.cpu.icache.overall_accesses::total    695977937                       # number of overall (read+write) accesses
system.cpu.icache.ReadReq_miss_rate::cpu.inst     0.000002                       # miss rate for ReadReq accesses
system.cpu.icache.ReadReq_miss_rate::total     0.000002                       # miss rate for ReadReq accesses
system.cpu.icache.demand_miss_rate::cpu.inst     0.000002                       # miss rate for demand accesses
system.cpu.icache.demand_miss_rate::total     0.000002                       # miss rate for demand accesses
system.cpu.icache.overall_miss_rate::cpu.inst     0.000002                       # miss rate for overall accesses
system.cpu.icache.overall_miss_rate::total     0.000002                       # miss rate for overall accesses
system.cpu.icache.ReadReq_avg_miss_latency::cpu.inst 78319.526627                       # average ReadReq miss latency
system.cpu.icache.ReadReq_avg_miss_latency::total 78319.526627                       # average ReadReq miss latency
system.cpu.icache.demand_avg_miss_latency::cpu.inst 78319.526627                       # average overall miss latency
system.cpu.icache.demand_avg_miss_latency::total 78319.526627                       # average overall miss latency
system.cpu.icache.overall_avg_miss_latency::cpu.inst 78319.526627                       # average overall miss latency
system.cpu.icache.overall_avg_miss_latency::total 78319.526627                       # average overall miss latency
system.cpu.icache.blocked_cycles::no_mshrs            0                       # number of cycles access was blocked
system.cpu.icache.blocked_cycles::no_targets            0                       # number of cycles access was blocked
system.cpu.icache.blocked::no_mshrs                 0                       # number of cycles access was blocked
system.cpu.icache.blocked::no_targets               0                       # number of cycles access was blocked
system.cpu.icache.avg_blocked_cycles::no_mshrs          nan                       # average number of cycles each access was blocked
system.cpu.icache.avg_blocked_cycles::no_targets          nan                       # average number of cycles each access was blocked
system.cpu.icache.fast_writes                       0                       # number of fast writes performed
system.cpu.icache.cache_copies                      0                       # number of cache copies performed
system.cpu.icache.writebacks::writebacks          170                       # number of writebacks
system.cpu.icache.writebacks::total               170                       # number of writebacks
system.cpu.icache.ReadReq_mshr_misses::cpu.inst         1352                       # number of ReadReq MSHR misses
system.cpu.icache.ReadReq_mshr_misses::total         1352                       # number of ReadReq MSHR misses
system.cpu.icache.demand_mshr_misses::cpu.inst         1352                       # number of demand (read+write) MSHR misses
system.cpu.icache.demand_mshr_misses::total         1352                       # number of demand (read+write) MSHR misses
system.cpu.icache.overall_mshr_misses::cpu.inst         1352                       # number of overall MSHR misses
system.cpu.icache.overall_mshr_misses::total         1352                       # number of overall MSHR misses
system.cpu.icache.ReadReq_mshr_miss_latency::cpu.inst    104536000                       # number of ReadReq MSHR miss cycles
system.cpu.icache.ReadReq_mshr_miss_latency::total    104536000                       # number of ReadReq MSHR miss cycles
system.cpu.icache.demand_mshr_miss_latency::cpu.inst    104536000                       # number of demand (read+write) MSHR miss cycles
system.cpu.icache.demand_mshr_miss_latency::total    104536000                       # number of demand (read+write) MSHR miss cycles
system.cpu.icache.overall_mshr_miss_latency::cpu.inst    104536000                       # number of overall MSHR miss cycles
system.cpu.icache.overall_mshr_miss_latency::total    104536000                       # number of overall MSHR miss cycles
system.cpu.icache.ReadReq_mshr_miss_rate::cpu.inst     0.000002                       # mshr miss rate for ReadReq accesses
system.cpu.icache.ReadReq_mshr_miss_rate::total     0.000002                       # mshr miss rate for ReadReq accesses
system.cpu.icache.demand_mshr_miss_rate::cpu.inst     0.000002                       # mshr miss rate for demand accesses
system.cpu.icache.demand_mshr_miss_rate::total     0.000002                       # mshr miss rate for demand accesses
system.cpu.icache.overall_mshr_miss_rate::cpu.inst     0.000002                       # mshr miss rate for overall accesses
system.cpu.icache.overall_mshr_miss_rate::total     0.000002                       # mshr miss rate for overall accesses
system.cpu.icache.ReadReq_avg_mshr_miss_latency::cpu.inst 77319.526627                       # average ReadReq mshr miss latency
system.cpu.icache.ReadReq_avg_mshr_miss_latency::total 77319.526627                       # average ReadReq mshr miss latency
system.cpu.icache.demand_avg_mshr_miss_latency::cpu.inst 77319.526627                       # average overall mshr miss latency
system.cpu.icache.demand_avg_mshr_miss_latency::total 77319.526627                       # average overall mshr miss latency
system.cpu.icache.overall_avg_mshr_miss_latency::cpu.inst 77319.526627                       # average overall mshr miss latency
system.cpu.icache.overall_avg_mshr_miss_latency::total 77319.526627                       # average overall mshr miss latency
system.cpu.icache.no_allocate_misses                0                       # Number of misses that were no-allocate
system.cpu.itb_walker_cache.tags.replacements            0                       # number of replacements
system.cpu.itb_walker_cache.tags.tagsinuse            0                       # Cycle average of tags in use
system.cpu.itb_walker_cache.tags.total_refs            0                       # Total number of references to valid blocks.
system.cpu.itb_walker_cache.tags.sampled_refs            0                       # Sample count of references to valid blocks.
system.cpu.itb_walker_cache.tags.avg_refs          nan                       # Average number of references to valid blocks.
system.cpu.itb_walker_cache.tags.warmup_cycle            0                       # Cycle when the warmup percentage was hit.
system.cpu.itb_walker_cache.tags.tag_accesses            0                       # Number of tag accesses
system.cpu.itb_walker_cache.tags.data_accesses            0                       # Number of data accesses
system.cpu.itb_walker_cache.blocked_cycles::no_mshrs            0                       # number of cycles access was blocked
system.cpu.itb_walker_cache.blocked_cycles::no_targets            0                       # number of cycles access was blocked
system.cpu.itb_walker_cache.blocked::no_mshrs            0                       # number of cycles access was blocked
system.cpu.itb_walker_cache.blocked::no_targets            0                       # number of cycles access was blocked
system.cpu.itb_walker_cache.avg_blocked_cycles::no_mshrs          nan                       # average number of cycles each access was blocked
system.cpu.itb_walker_cache.avg_blocked_cycles::no_targets          nan                       # average number of cycles each access was blocked
system.cpu.itb_walker_cache.fast_writes             0                       # number of fast writes performed
system.cpu.itb_walker_cache.cache_copies            0                       # number of cache copies performed
system.cpu.itb_walker_cache.no_allocate_misses            0                       # Number of misses that were no-allocate
system.l2.tags.replacements                        36                       # number of replacements
system.l2.tags.tagsinuse                  4953.812350                       # Cycle average of tags in use
system.l2.tags.total_refs                      196770                       # Total number of references to valid blocks.
system.l2.tags.sampled_refs                      5299                       # Sample count of references to valid blocks.
system.l2.tags.avg_refs                     37.133421                       # Average number of references to valid blocks.
system.l2.tags.warmup_cycle                         0                       # Cycle when the warmup percentage was hit.
system.l2.tags.occ_blocks::writebacks     2880.675582                       # Average occupied blocks per requestor
system.l2.tags.occ_blocks::cpu.inst       1306.009874                       # Average occupied blocks per requestor
system.l2.tags.occ_blocks::cpu.data        767.126893                       # Average occupied blocks per requestor
system.l2.tags.occ_percent::writebacks       0.175822                       # Average percentage of cache occupancy
system.l2.tags.occ_percent::cpu.inst         0.079713                       # Average percentage of cache occupancy
system.l2.tags.occ_percent::cpu.data         0.046822                       # Average percentage of cache occupancy
system.l2.tags.occ_percent::total            0.302357                       # Average percentage of cache occupancy
system.l2.tags.occ_task_id_blocks::1024          5263                       # Occupied blocks per task id
system.l2.tags.age_task_id_blocks_1024::0            2                       # Occupied blocks per task id
system.l2.tags.age_task_id_blocks_1024::1           14                       # Occupied blocks per task id
system.l2.tags.age_task_id_blocks_1024::2           68                       # Occupied blocks per task id
system.l2.tags.age_task_id_blocks_1024::3          204                       # Occupied blocks per task id
system.l2.tags.age_task_id_blocks_1024::4         4975                       # Occupied blocks per task id
system.l2.tags.occ_task_id_percent::1024     0.321228                       # Percentage of cache occupancy per task id
system.l2.tags.tag_accesses                   1734824                       # Number of tag accesses
system.l2.tags.data_accesses                  1734824                       # Number of data accesses
system.l2.WritebackDirty_hits::writebacks       193827                       # number of WritebackDirty hits
system.l2.WritebackDirty_hits::total           193827                       # number of WritebackDirty hits
system.l2.WritebackClean_hits::writebacks          170                       # number of WritebackClean hits
system.l2.WritebackClean_hits::total              170                       # number of WritebackClean hits
system.l2.ReadExReq_hits::cpu.data             131656                       # number of ReadExReq hits
system.l2.ReadExReq_hits::total                131656                       # number of ReadExReq hits
system.l2.ReadCleanReq_hits::cpu.inst              12                       # number of ReadCleanReq hits
system.l2.ReadCleanReq_hits::total                 12                       # number of ReadCleanReq hits
system.l2.ReadSharedReq_hits::cpu.data          62155                       # number of ReadSharedReq hits
system.l2.ReadSharedReq_hits::total             62155                       # number of ReadSharedReq hits
system.l2.demand_hits::cpu.inst                    12                       # number of demand (read+write) hits
system.l2.demand_hits::cpu.data                193811                       # number of demand (read+write) hits
system.l2.demand_hits::total                   193823                       # number of demand (read+write) hits
system.l2.overall_hits::cpu.inst                   12                       # number of overall hits
system.l2.overall_hits::cpu.data               193811                       # number of overall hits
system.l2.overall_hits::total                  193823                       # number of overall hits
system.l2.ReadExReq_misses::cpu.data             3777                       # number of ReadExReq misses
system.l2.ReadExReq_misses::total                3777                       # number of ReadExReq misses
system.l2.ReadCleanReq_misses::cpu.inst          1340                       # number of ReadCleanReq misses
system.l2.ReadCleanReq_misses::total             1340                       # number of ReadCleanReq misses
system.l2.ReadSharedReq_misses::cpu.data         1937                       # number of ReadSharedReq misses
system.l2.ReadSharedReq_misses::total            1937                       # number of ReadSharedReq misses
system.l2.demand_misses::cpu.inst                1340                       # number of demand (read+write) misses
system.l2.demand_misses::cpu.data                5714                       # number of demand (read+write) misses
system.l2.demand_misses::total                   7054                       # number of demand (read+write) misses
system.l2.overall_misses::cpu.inst               1340                       # number of overall misses
system.l2.overall_misses::cpu.data               5714                       # number of overall misses
system.l2.overall_misses::total                  7054                       # number of overall misses
system.l2.ReadExReq_miss_latency::cpu.data    313825000                       # number of ReadExReq miss cycles
system.l2.ReadExReq_miss_latency::total     313825000                       # number of ReadExReq miss cycles
system.l2.ReadCleanReq_miss_latency::cpu.inst    102379000                       # number of ReadCleanReq miss cycles
system.l2.ReadCleanReq_miss_latency::total    102379000                       # number of ReadCleanReq miss cycles
system.l2.ReadSharedReq_miss_latency::cpu.data    149983000                       # number of ReadSharedReq miss cycles
system.l2.ReadSharedReq_miss_latency::total    149983000                       # number of ReadSharedReq miss cycles
system.l2.demand_miss_latency::cpu.inst     102379000                       # number of demand (read+write) miss cycles
system.l2.demand_miss_latency::cpu.data     463808000                       # number of demand (read+write) miss cycles
system.l2.demand_miss_latency::total        566187000                       # number of demand (read+write) miss cycles
system.l2.overall_miss_latency::cpu.inst    102379000                       # number of overall miss cycles
system.l2.overall_miss_latency::cpu.data    463808000                       # number of overall miss cycles
system.l2.overall_miss_latency::total       566187000                       # number of overall miss cycles
system.l2.WritebackDirty_accesses::writebacks       193827                       # number of WritebackDirty accesses(hits+misses)
system.l2.WritebackDirty_accesses::total       193827                       # number of WritebackDirty accesses(hits+misses)
system.l2.WritebackClean_accesses::writebacks          170                       # number of WritebackClean accesses(hits+misses)
system.l2.WritebackClean_accesses::total          170                       # number of WritebackClean accesses(hits+misses)
system.l2.ReadExReq_accesses::cpu.data         135433                       # number of ReadExReq accesses(hits+misses)
system.l2.ReadExReq_accesses::total            135433                       # number of ReadExReq accesses(hits+misses)
system.l2.ReadCleanReq_accesses::cpu.inst         1352                       # number of ReadCleanReq accesses(hits+misses)
system.l2.ReadCleanReq_accesses::total           1352                       # number of ReadCleanReq accesses(hits+misses)
system.l2.ReadSharedReq_accesses::cpu.data        64092                       # number of ReadSharedReq accesses(hits+misses)
system.l2.ReadSharedReq_accesses::total         64092                       # number of ReadSharedReq accesses(hits+misses)
system.l2.demand_accesses::cpu.inst              1352                       # number of demand (read+write) accesses
system.l2.demand_accesses::cpu.data            199525                       # number of demand (read+write) accesses
system.l2.demand_accesses::total               200877                       # number of demand (read+write) accesses
system.l2.overall_accesses::cpu.inst             1352                       # number of overall (read+write) accesses
system.l2.overall_accesses::cpu.data           199525                       # number of overall (read+write) accesses
system.l2.overall_accesses::total              200877                       # number of overall (read+write) accesses
system.l2.ReadExReq_miss_rate::cpu.data      0.027888                       # miss rate for ReadExReq accesses
system.l2.ReadExReq_miss_rate::total         0.027888                       # miss rate for ReadExReq accesses
system.l2.ReadCleanReq_miss_rate::cpu.inst     0.991124                       # miss rate for ReadCleanReq accesses
system.l2.ReadCleanReq_miss_rate::total      0.991124                       # miss rate for ReadCleanReq accesses
system.l2.ReadSharedReq_miss_rate::cpu.data     0.030222                       # miss rate for ReadSharedReq accesses
system.l2.ReadSharedReq_miss_rate::total     0.030222                       # miss rate for ReadSharedReq accesses
system.l2.demand_miss_rate::cpu.inst         0.991124                       # miss rate for demand accesses
system.l2.demand_miss_rate::cpu.data         0.028638                       # miss rate for demand accesses
system.l2.demand_miss_rate::total            0.035116                       # miss rate for demand accesses
system.l2.overall_miss_rate::cpu.inst        0.991124                       # miss rate for overall accesses
system.l2.overall_miss_rate::cpu.data        0.028638                       # miss rate for overall accesses
system.l2.overall_miss_rate::total           0.035116                       # miss rate for overall accesses
system.l2.ReadExReq_avg_miss_latency::cpu.data 83088.429971                       # average ReadExReq miss latency
system.l2.ReadExReq_avg_miss_latency::total 83088.429971                       # average ReadExReq miss latency
system.l2.ReadCleanReq_avg_miss_latency::cpu.inst 76402.238806                       # average ReadCleanReq miss latency
system.l2.ReadCleanReq_avg_miss_latency::total 76402.238806                       # average ReadCleanReq miss latency
system.l2.ReadSharedReq_avg_miss_latency::cpu.data 77430.562726                       # average ReadSharedReq miss latency
system.l2.ReadSharedReq_avg_miss_latency::total 77430.562726                       # average ReadSharedReq miss latency
system.l2.demand_avg_miss_latency::cpu.inst 76402.238806                       # average overall miss latency
system.l2.demand_avg_miss_latency::cpu.data 81170.458523                       # average overall miss latency
system.l2.demand_avg_miss_latency::total 80264.672526                       # average overall miss latency
system.l2.overall_avg_miss_latency::cpu.inst 76402.238806                       # average overall miss latency
system.l2.overall_avg_miss_latency::cpu.data 81170.458523                       # average overall miss latency
system.l2.overall_avg_miss_latency::total 80264.672526                       # average overall miss latency
system.l2.blocked_cycles::no_mshrs                  0                       # number of cycles access was blocked
system.l2.blocked_cycles::no_targets                0                       # number of cycles access was blocked
system.l2.blocked::no_mshrs                         0                       # number of cycles access was blocked
system.l2.blocked::no_targets                       0                       # number of cycles access was blocked
system.l2.avg_blocked_cycles::no_mshrs            nan                       # average number of cycles each access was blocked
system.l2.avg_blocked_cycles::no_targets          nan                       # average number of cycles each access was blocked
system.l2.fast_writes                               0                       # number of fast writes performed
system.l2.cache_copies                              0                       # number of cache copies performed
system.l2.ReadExReq_mshr_misses::cpu.data         3777                       # number of ReadExReq MSHR misses
system.l2.ReadExReq_mshr_misses::total           3777                       # number of ReadExReq MSHR misses
system.l2.ReadCleanReq_mshr_misses::cpu.inst         1340                       # number of ReadCleanReq MSHR misses
system.l2.ReadCleanReq_mshr_misses::total         1340                       # number of ReadCleanReq MSHR misses
system.l2.ReadSharedReq_mshr_misses::cpu.data         1937                       # number of ReadSharedReq MSHR misses
system.l2.ReadSharedReq_mshr_misses::total         1937                       # number of ReadSharedReq MSHR misses
system.l2.demand_mshr_misses::cpu.inst           1340                       # number of demand (read+write) MSHR misses
system.l2.demand_mshr_misses::cpu.data           5714                       # number of demand (read+write) MSHR misses
system.l2.demand_mshr_misses::total              7054                       # number of demand (read+write) MSHR misses
system.l2.overall_mshr_misses::cpu.inst          1340                       # number of overall MSHR misses
system.l2.overall_mshr_misses::cpu.data          5714                       # number of overall MSHR misses
system.l2.overall_mshr_misses::total             7054                       # number of overall MSHR misses
system.l2.ReadExReq_mshr_miss_latency::cpu.data    276055000                       # number of ReadExReq MSHR miss cycles
system.l2.ReadExReq_mshr_miss_latency::total    276055000                       # number of ReadExReq MSHR miss cycles
system.l2.ReadCleanReq_mshr_miss_latency::cpu.inst     88979000                       # number of ReadCleanReq MSHR miss cycles
system.l2.ReadCleanReq_mshr_miss_latency::total     88979000                       # number of ReadCleanReq MSHR miss cycles
system.l2.ReadSharedReq_mshr_miss_latency::cpu.data    130613000                       # number of ReadSharedReq MSHR miss cycles
system.l2.ReadSharedReq_mshr_miss_latency::total    130613000                       # number of ReadSharedReq MSHR miss cycles
system.l2.demand_mshr_miss_latency::cpu.inst     88979000                       # number of demand (read+write) MSHR miss cycles
system.l2.demand_mshr_miss_latency::cpu.data    406668000                       # number of demand (read+write) MSHR miss cycles
system.l2.demand_mshr_miss_latency::total    495647000                       # number of demand (read+write) MSHR miss cycles
system.l2.overall_mshr_miss_latency::cpu.inst     88979000                       # number of overall MSHR miss cycles
system.l2.overall_mshr_miss_latency::cpu.data    406668000                       # number of overall MSHR miss cycles
system.l2.overall_mshr_miss_latency::total    495647000                       # number of overall MSHR miss cycles
system.l2.ReadExReq_mshr_miss_rate::cpu.data     0.027888                       # mshr miss rate for ReadExReq accesses
system.l2.ReadExReq_mshr_miss_rate::total     0.027888                       # mshr miss rate for ReadExReq accesses
system.l2.ReadCleanReq_mshr_miss_rate::cpu.inst     0.991124                       # mshr miss rate for ReadCleanReq accesses
system.l2.ReadCleanReq_mshr_miss_rate::total     0.991124                       # mshr miss rate for ReadCleanReq accesses
system.l2.ReadSharedReq_mshr_miss_rate::cpu.data     0.030222                       # mshr miss rate for ReadSharedReq accesses
system.l2.ReadSharedReq_mshr_miss_rate::total     0.030222                       # mshr miss rate for ReadSharedReq accesses
system.l2.demand_mshr_miss_rate::cpu.inst     0.991124                       # mshr miss rate for demand accesses
system.l2.demand_mshr_miss_rate::cpu.data     0.028638                       # mshr miss rate for demand accesses
system.l2.demand_mshr_miss_rate::total       0.035116                       # mshr miss rate for demand accesses
system.l2.overall_mshr_miss_rate::cpu.inst     0.991124                       # mshr miss rate for overall accesses
system.l2.overall_mshr_miss_rate::cpu.data     0.028638                       # mshr miss rate for overall accesses
system.l2.overall_mshr_miss_rate::total      0.035116                       # mshr miss rate for overall accesses
system.l2.ReadExReq_avg_mshr_miss_latency::cpu.data 73088.429971                       # average ReadExReq mshr miss latency
system.l2.ReadExReq_avg_mshr_miss_latency::total 73088.429971                       # average ReadExReq mshr miss latency
system.l2.ReadCleanReq_avg_mshr_miss_latency::cpu.inst 66402.238806                       # average ReadCleanReq mshr miss latency
system.l2.ReadCleanReq_avg_mshr_miss_latency::total 66402.238806                       # average ReadCleanReq mshr miss latency
system.l2.ReadSharedReq_avg_mshr_miss_latency::cpu.data 67430.562726                       # average ReadSharedReq mshr miss latency
system.l2.ReadSharedReq_avg_mshr_miss_latency::total 67430.562726                       # average ReadSharedReq mshr miss latency
system.l2.demand_avg_mshr_miss_latency::cpu.inst 66402.238806                       # average overall mshr miss latency
system.l2.demand_avg_mshr_miss_latency::cpu.data 71170.458523                       # average overall mshr miss latency
system.l2.demand_avg_mshr_miss_latency::total 70264.672526                       # average overall mshr miss latency
system.l2.overall_avg_mshr_miss_latency::cpu.inst 66402.238806                       # average overall mshr miss latency
system.l2.overall_avg_mshr_miss_latency::cpu.data 71170.458523                       # average overall mshr miss latency
system.l2.overall_avg_mshr_miss_latency::total 70264.672526                       # average overall mshr miss latency
system.l2.no_allocate_misses                        0                       # Number of misses that were no-allocate
system.membus.trans_dist::ReadResp               3277                       # Transaction distribution
system.membus.trans_dist::CleanEvict                2                       # Transaction distribution
system.membus.trans_dist::ReadExReq              3777                       # Transaction distribution
system.membus.trans_dist::ReadExResp             3777                       # Transaction distribution
system.membus.trans_dist::ReadSharedReq          3277                       # Transaction distribution
system.membus.pkt_count_system.l2.mem_side::system.mem_ctrls.port        14110                       # Packet count per connected master and slave (bytes)
system.membus.pkt_count_system.l2.mem_side::total        14110                       # Packet count per connected master and slave (bytes)
system.membus.pkt_count::total                  14110                       # Packet count per connected master and slave (bytes)
system.membus.pkt_size_system.l2.mem_side::system.mem_ctrls.port       451456                       # Cumulative packet size per connected master and slave (bytes)
system.membus.pkt_size_system.l2.mem_side::total       451456                       # Cumulative packet size per connected master and slave (bytes)
system.membus.pkt_size::total                  451456                       # Cumulative packet size per connected master and slave (bytes)
system.membus.snoops                                0                       # Total snoops (count)
system.membus.snoop_fanout::samples              7056                       # Request fanout histogram
system.membus.snoop_fanout::mean                    0                       # Request fanout histogram
system.membus.snoop_fanout::stdev                   0                       # Request fanout histogram
system.membus.snoop_fanout::underflows              0      0.00%      0.00% # Request fanout histogram
system.membus.snoop_fanout::0                    7056    100.00%    100.00% # Request fanout histogram
system.membus.snoop_fanout::1                       0      0.00%    100.00% # Request fanout histogram
system.membus.snoop_fanout::overflows               0      0.00%    100.00% # Request fanout histogram
system.membus.snoop_fanout::min_value               0                       # Request fanout histogram
system.membus.snoop_fanout::max_value               0                       # Request fanout histogram
system.membus.snoop_fanout::total                7056                       # Request fanout histogram
system.membus.reqLayer2.occupancy             7601500                       # Layer occupancy (ticks)
system.membus.reqLayer2.utilization               0.0                       # Layer utilization (%)
system.membus.respLayer1.occupancy           37490500                       # Layer occupancy (ticks)
system.membus.respLayer1.utilization              0.0                       # Layer utilization (%)
system.tol2bus.snoop_filter.tot_requests       398524                       # Total number of requests made to the snoop filter.
system.tol2bus.snoop_filter.hit_single_requests       197647                       # Number of requests hitting in the snoop filter with a single holder of the requested data.
system.tol2bus.snoop_filter.hit_multi_requests            1                       # Number of requests hitting in the snoop filter with multiple (>1) holders of the requested data.
system.tol2bus.snoop_filter.tot_snoops             34                       # Total number of snoops made to the snoop filter.
system.tol2bus.snoop_filter.hit_single_snoops           34                       # Number of snoops hitting in the snoop filter with a single holder of the requested data.
system.tol2bus.snoop_filter.hit_multi_snoops            0                       # Number of snoops hitting in the snoop filter with multiple (>1) holders of the requested data.
system.tol2bus.trans_dist::ReadResp             65444                       # Transaction distribution
system.tol2bus.trans_dist::WritebackDirty       193827                       # Transaction distribution
system.tol2bus.trans_dist::WritebackClean          170                       # Transaction distribution
system.tol2bus.trans_dist::CleanEvict            3685                       # Transaction distribution
system.tol2bus.trans_dist::ReadExReq           135433                       # Transaction distribution
system.tol2bus.trans_dist::ReadExResp          135433                       # Transaction distribution
system.tol2bus.trans_dist::ReadCleanReq          1352                       # Transaction distribution
system.tol2bus.trans_dist::ReadSharedReq        64092                       # Transaction distribution
system.tol2bus.pkt_count_system.cpu.icache.mem_side::system.l2.cpu_side         2874                       # Packet count per connected master and slave (bytes)
system.tol2bus.pkt_count_system.cpu.dcache.mem_side::system.l2.cpu_side       596526                       # Packet count per connected master and slave (bytes)
system.tol2bus.pkt_count::total                599400                       # Packet count per connected master and slave (bytes)
system.tol2bus.pkt_size_system.cpu.icache.mem_side::system.l2.cpu_side        97408                       # Cumulative packet size per connected master and slave (bytes)
system.tol2bus.pkt_size_system.cpu.dcache.mem_side::system.l2.cpu_side     25174528                       # Cumulative packet size per connected master and slave (bytes)
system.tol2bus.pkt_size::total               25271936                       # Cumulative packet size per connected master and slave (bytes)
system.tol2bus.snoops                              36                       # Total snoops (count)
system.tol2bus.snoop_fanout::samples           200913                       # Request fanout histogram
system.tol2bus.snoop_fanout::mean            0.000174                       # Request fanout histogram
system.tol2bus.snoop_fanout::stdev           0.013198                       # Request fanout histogram
system.tol2bus.snoop_fanout::underflows             0      0.00%      0.00% # Request fanout histogram
system.tol2bus.snoop_fanout::0                 200878     99.98%     99.98% # Request fanout histogram
system.tol2bus.snoop_fanout::1                     35      0.02%    100.00% # Request fanout histogram
system.tol2bus.snoop_fanout::2                      0      0.00%    100.00% # Request fanout histogram
system.tol2bus.snoop_fanout::3                      0      0.00%    100.00% # Request fanout histogram
system.tol2bus.snoop_fanout::4                      0      0.00%    100.00% # Request fanout histogram
system.tol2bus.snoop_fanout::overflows              0      0.00%    100.00% # Request fanout histogram
system.tol2bus.snoop_fanout::min_value              0                       # Request fanout histogram
system.tol2bus.snoop_fanout::max_value              1                       # Request fanout histogram
system.tol2bus.snoop_fanout::total             200913                       # Request fanout histogram
system.tol2bus.reqLayer0.occupancy          393259000                       # Layer occupancy (ticks)
system.tol2bus.reqLayer0.utilization              0.0                       # Layer utilization (%)
system.tol2bus.respLayer0.occupancy           2028000                       # Layer occupancy (ticks)
system.tol2bus.respLayer0.utilization             0.0                       # Layer utilization (%)
system.tol2bus.respLayer1.occupancy         299287500                       # Layer occupancy (ticks)
system.tol2bus.respLayer1.utilization             0.0                       # Layer utilization (%)

---------- End Simulation Statistics   ----------
