
---------- Begin Simulation Statistics ----------
sim_seconds                                  0.110143                       # Number of seconds simulated
sim_ticks                                110143027500                       # Number of ticks simulated
final_tick                               110143027500                       # Number of ticks from beginning of simulation (restored from checkpoints and never reset)
sim_freq                                 1000000000000                       # Frequency of simulated ticks
host_inst_rate                                 726635                       # Simulator instruction rate (inst/s)
host_op_rate                                  1316182                       # Simulator op (including micro ops) rate (op/s)
host_tick_rate                              800337341                       # Simulator tick rate (ticks/s)
host_mem_usage                                 855792                       # Number of bytes of host memory used
host_seconds                                   137.62                       # Real time elapsed on the host
sim_insts                                   100000000                       # Number of instructions simulated
sim_ops                                     181133976                       # Number of ops (including micro ops) simulated
system.voltage_domain.voltage                       1                       # Voltage in Volts
system.clk_domain.clock                          1000                       # Clock period in ticks
system.mem_ctrls.bytes_read::cpu.inst           80768                       # Number of bytes read from this memory
system.mem_ctrls.bytes_read::cpu.data       530584832                       # Number of bytes read from this memory
system.mem_ctrls.bytes_read::total          530665600                       # Number of bytes read from this memory
system.mem_ctrls.bytes_inst_read::cpu.inst        80768                       # Number of instructions bytes read from this memory
system.mem_ctrls.bytes_inst_read::total         80768                       # Number of instructions bytes read from this memory
system.mem_ctrls.bytes_written::writebacks    529498752                       # Number of bytes written to this memory
system.mem_ctrls.bytes_written::total       529498752                       # Number of bytes written to this memory
system.mem_ctrls.num_reads::cpu.inst            10096                       # Number of read requests responded to by this memory
system.mem_ctrls.num_reads::cpu.data         66323104                       # Number of read requests responded to by this memory
system.mem_ctrls.num_reads::total            66333200                       # Number of read requests responded to by this memory
system.mem_ctrls.num_writes::writebacks      66187344                       # Number of write requests responded to by this memory
system.mem_ctrls.num_writes::total           66187344                       # Number of write requests responded to by this memory
system.mem_ctrls.bw_read::cpu.inst             733301                       # Total read bandwidth from this memory (bytes/s)
system.mem_ctrls.bw_read::cpu.data         4817234863                       # Total read bandwidth from this memory (bytes/s)
system.mem_ctrls.bw_read::total            4817968164                       # Total read bandwidth from this memory (bytes/s)
system.mem_ctrls.bw_inst_read::cpu.inst        733301                       # Instruction read bandwidth from this memory (bytes/s)
system.mem_ctrls.bw_inst_read::total           733301                       # Instruction read bandwidth from this memory (bytes/s)
system.mem_ctrls.bw_write::writebacks      4807374230                       # Write bandwidth from this memory (bytes/s)
system.mem_ctrls.bw_write::total           4807374230                       # Write bandwidth from this memory (bytes/s)
system.mem_ctrls.bw_total::writebacks      4807374230                       # Total bandwidth to/from this memory (bytes/s)
system.mem_ctrls.bw_total::cpu.inst            733301                       # Total bandwidth to/from this memory (bytes/s)
system.mem_ctrls.bw_total::cpu.data        4817234863                       # Total bandwidth to/from this memory (bytes/s)
system.mem_ctrls.bw_total::total           9625342394                       # Total bandwidth to/from this memory (bytes/s)
system.mem_ctrls.readReqs                           0                       # Number of read requests accepted
system.mem_ctrls.writeReqs                          0                       # Number of write requests accepted
system.mem_ctrls.readBursts                         0                       # Number of DRAM read bursts, including those serviced by the write queue
system.mem_ctrls.writeBursts                        0                       # Number of DRAM write bursts, including those merged in the write queue
system.mem_ctrls.bytesReadDRAM                      0                       # Total number of bytes read from DRAM
system.mem_ctrls.bytesReadWrQ                       0                       # Total number of bytes read from write queue
system.mem_ctrls.bytesWritten                       0                       # Total number of bytes written to DRAM
system.mem_ctrls.bytesReadSys                       0                       # Total read bytes from the system interface side
system.mem_ctrls.bytesWrittenSys                    0                       # Total written bytes from the system interface side
system.mem_ctrls.servicedByWrQ                      0                       # Number of DRAM read bursts serviced by the write queue
system.mem_ctrls.mergedWrBursts                     0                       # Number of DRAM write bursts merged with an existing one
system.mem_ctrls.neitherReadNorWriteReqs            0                       # Number of requests that are neither read nor write
system.mem_ctrls.perBankRdBursts::0                 0                       # Per bank write bursts
system.mem_ctrls.perBankRdBursts::1                 0                       # Per bank write bursts
system.mem_ctrls.perBankRdBursts::2                 0                       # Per bank write bursts
system.mem_ctrls.perBankRdBursts::3                 0                       # Per bank write bursts
system.mem_ctrls.perBankRdBursts::4                 0                       # Per bank write bursts
system.mem_ctrls.perBankRdBursts::5                 0                       # Per bank write bursts
system.mem_ctrls.perBankRdBursts::6                 0                       # Per bank write bursts
system.mem_ctrls.perBankRdBursts::7                 0                       # Per bank write bursts
system.mem_ctrls.perBankRdBursts::8                 0                       # Per bank write bursts
system.mem_ctrls.perBankRdBursts::9                 0                       # Per bank write bursts
system.mem_ctrls.perBankRdBursts::10                0                       # Per bank write bursts
system.mem_ctrls.perBankRdBursts::11                0                       # Per bank write bursts
system.mem_ctrls.perBankRdBursts::12                0                       # Per bank write bursts
system.mem_ctrls.perBankRdBursts::13                0                       # Per bank write bursts
system.mem_ctrls.perBankRdBursts::14                0                       # Per bank write bursts
system.mem_ctrls.perBankRdBursts::15                0                       # Per bank write bursts
system.mem_ctrls.perBankWrBursts::0                 0                       # Per bank write bursts
system.mem_ctrls.perBankWrBursts::1                 0                       # Per bank write bursts
system.mem_ctrls.perBankWrBursts::2                 0                       # Per bank write bursts
system.mem_ctrls.perBankWrBursts::3                 0                       # Per bank write bursts
system.mem_ctrls.perBankWrBursts::4                 0                       # Per bank write bursts
system.mem_ctrls.perBankWrBursts::5                 0                       # Per bank write bursts
system.mem_ctrls.perBankWrBursts::6                 0                       # Per bank write bursts
system.mem_ctrls.perBankWrBursts::7                 0                       # Per bank write bursts
system.mem_ctrls.perBankWrBursts::8                 0                       # Per bank write bursts
system.mem_ctrls.perBankWrBursts::9                 0                       # Per bank write bursts
system.mem_ctrls.perBankWrBursts::10                0                       # Per bank write bursts
system.mem_ctrls.perBankWrBursts::11                0                       # Per bank write bursts
system.mem_ctrls.perBankWrBursts::12                0                       # Per bank write bursts
system.mem_ctrls.perBankWrBursts::13                0                       # Per bank write bursts
system.mem_ctrls.perBankWrBursts::14                0                       # Per bank write bursts
system.mem_ctrls.perBankWrBursts::15                0                       # Per bank write bursts
system.mem_ctrls.numRdRetry                         0                       # Number of times read queue was full causing retry
system.mem_ctrls.numWrRetry                         0                       # Number of times write queue was full causing retry
system.mem_ctrls.totGap                             0                       # Total gap between requests
system.mem_ctrls.readPktSize::0                     0                       # Read request sizes (log2)
system.mem_ctrls.readPktSize::1                     0                       # Read request sizes (log2)
system.mem_ctrls.readPktSize::2                     0                       # Read request sizes (log2)
system.mem_ctrls.readPktSize::3                     0                       # Read request sizes (log2)
system.mem_ctrls.readPktSize::4                     0                       # Read request sizes (log2)
system.mem_ctrls.readPktSize::5                     0                       # Read request sizes (log2)
system.mem_ctrls.readPktSize::6                     0                       # Read request sizes (log2)
system.mem_ctrls.writePktSize::0                    0                       # Write request sizes (log2)
system.mem_ctrls.writePktSize::1                    0                       # Write request sizes (log2)
system.mem_ctrls.writePktSize::2                    0                       # Write request sizes (log2)
system.mem_ctrls.writePktSize::3                    0                       # Write request sizes (log2)
system.mem_ctrls.writePktSize::4                    0                       # Write request sizes (log2)
system.mem_ctrls.writePktSize::5                    0                       # Write request sizes (log2)
system.mem_ctrls.writePktSize::6                    0                       # Write request sizes (log2)
system.mem_ctrls.rdQLenPdf::0                       0                       # What read queue length does an incoming req see
system.mem_ctrls.rdQLenPdf::1                       0                       # What read queue length does an incoming req see
system.mem_ctrls.rdQLenPdf::2                       0                       # What read queue length does an incoming req see
system.mem_ctrls.rdQLenPdf::3                       0                       # What read queue length does an incoming req see
system.mem_ctrls.rdQLenPdf::4                       0                       # What read queue length does an incoming req see
system.mem_ctrls.rdQLenPdf::5                       0                       # What read queue length does an incoming req see
system.mem_ctrls.rdQLenPdf::6                       0                       # What read queue length does an incoming req see
system.mem_ctrls.rdQLenPdf::7                       0                       # What read queue length does an incoming req see
system.mem_ctrls.rdQLenPdf::8                       0                       # What read queue length does an incoming req see
system.mem_ctrls.rdQLenPdf::9                       0                       # What read queue length does an incoming req see
system.mem_ctrls.rdQLenPdf::10                      0                       # What read queue length does an incoming req see
system.mem_ctrls.rdQLenPdf::11                      0                       # What read queue length does an incoming req see
system.mem_ctrls.rdQLenPdf::12                      0                       # What read queue length does an incoming req see
system.mem_ctrls.rdQLenPdf::13                      0                       # What read queue length does an incoming req see
system.mem_ctrls.rdQLenPdf::14                      0                       # What read queue length does an incoming req see
system.mem_ctrls.rdQLenPdf::15                      0                       # What read queue length does an incoming req see
system.mem_ctrls.rdQLenPdf::16                      0                       # What read queue length does an incoming req see
system.mem_ctrls.rdQLenPdf::17                      0                       # What read queue length does an incoming req see
system.mem_ctrls.rdQLenPdf::18                      0                       # What read queue length does an incoming req see
system.mem_ctrls.rdQLenPdf::19                      0                       # What read queue length does an incoming req see
system.mem_ctrls.rdQLenPdf::20                      0                       # What read queue length does an incoming req see
system.mem_ctrls.rdQLenPdf::21                      0                       # What read queue length does an incoming req see
system.mem_ctrls.rdQLenPdf::22                      0                       # What read queue length does an incoming req see
system.mem_ctrls.rdQLenPdf::23                      0                       # What read queue length does an incoming req see
system.mem_ctrls.rdQLenPdf::24                      0                       # What read queue length does an incoming req see
system.mem_ctrls.rdQLenPdf::25                      0                       # What read queue length does an incoming req see
system.mem_ctrls.rdQLenPdf::26                      0                       # What read queue length does an incoming req see
system.mem_ctrls.rdQLenPdf::27                      0                       # What read queue length does an incoming req see
system.mem_ctrls.rdQLenPdf::28                      0                       # What read queue length does an incoming req see
system.mem_ctrls.rdQLenPdf::29                      0                       # What read queue length does an incoming req see
system.mem_ctrls.rdQLenPdf::30                      0                       # What read queue length does an incoming req see
system.mem_ctrls.rdQLenPdf::31                      0                       # What read queue length does an incoming req see
system.mem_ctrls.wrQLenPdf::0                       0                       # What write queue length does an incoming req see
system.mem_ctrls.wrQLenPdf::1                       0                       # What write queue length does an incoming req see
system.mem_ctrls.wrQLenPdf::2                       0                       # What write queue length does an incoming req see
system.mem_ctrls.wrQLenPdf::3                       0                       # What write queue length does an incoming req see
system.mem_ctrls.wrQLenPdf::4                       0                       # What write queue length does an incoming req see
system.mem_ctrls.wrQLenPdf::5                       0                       # What write queue length does an incoming req see
system.mem_ctrls.wrQLenPdf::6                       0                       # What write queue length does an incoming req see
system.mem_ctrls.wrQLenPdf::7                       0                       # What write queue length does an incoming req see
system.mem_ctrls.wrQLenPdf::8                       0                       # What write queue length does an incoming req see
system.mem_ctrls.wrQLenPdf::9                       0                       # What write queue length does an incoming req see
system.mem_ctrls.wrQLenPdf::10                      0                       # What write queue length does an incoming req see
system.mem_ctrls.wrQLenPdf::11                      0                       # What write queue length does an incoming req see
system.mem_ctrls.wrQLenPdf::12                      0                       # What write queue length does an incoming req see
system.mem_ctrls.wrQLenPdf::13                      0                       # What write queue length does an incoming req see
system.mem_ctrls.wrQLenPdf::14                      0                       # What write queue length does an incoming req see
system.mem_ctrls.wrQLenPdf::15                      0                       # What write queue length does an incoming req see
system.mem_ctrls.wrQLenPdf::16                      0                       # What write queue length does an incoming req see
system.mem_ctrls.wrQLenPdf::17                      0                       # What write queue length does an incoming req see
system.mem_ctrls.wrQLenPdf::18                      0                       # What write queue length does an incoming req see
system.mem_ctrls.wrQLenPdf::19                      0                       # What write queue length does an incoming req see
system.mem_ctrls.wrQLenPdf::20                      0                       # What write queue length does an incoming req see
system.mem_ctrls.wrQLenPdf::21                      0                       # What write queue length does an incoming req see
system.mem_ctrls.wrQLenPdf::22                      0                       # What write queue length does an incoming req see
system.mem_ctrls.wrQLenPdf::23                      0                       # What write queue length does an incoming req see
system.mem_ctrls.wrQLenPdf::24                      0                       # What write queue length does an incoming req see
system.mem_ctrls.wrQLenPdf::25                      0                       # What write queue length does an incoming req see
system.mem_ctrls.wrQLenPdf::26                      0                       # What write queue length does an incoming req see
system.mem_ctrls.wrQLenPdf::27                      0                       # What write queue length does an incoming req see
system.mem_ctrls.wrQLenPdf::28                      0                       # What write queue length does an incoming req see
system.mem_ctrls.wrQLenPdf::29                      0                       # What write queue length does an incoming req see
system.mem_ctrls.wrQLenPdf::30                      0                       # What write queue length does an incoming req see
system.mem_ctrls.wrQLenPdf::31                      0                       # What write queue length does an incoming req see
system.mem_ctrls.wrQLenPdf::32                      0                       # What write queue length does an incoming req see
system.mem_ctrls.wrQLenPdf::33                      0                       # What write queue length does an incoming req see
system.mem_ctrls.wrQLenPdf::34                      0                       # What write queue length does an incoming req see
system.mem_ctrls.wrQLenPdf::35                      0                       # What write queue length does an incoming req see
system.mem_ctrls.wrQLenPdf::36                      0                       # What write queue length does an incoming req see
system.mem_ctrls.wrQLenPdf::37                      0                       # What write queue length does an incoming req see
system.mem_ctrls.wrQLenPdf::38                      0                       # What write queue length does an incoming req see
system.mem_ctrls.wrQLenPdf::39                      0                       # What write queue length does an incoming req see
system.mem_ctrls.wrQLenPdf::40                      0                       # What write queue length does an incoming req see
system.mem_ctrls.wrQLenPdf::41                      0                       # What write queue length does an incoming req see
system.mem_ctrls.wrQLenPdf::42                      0                       # What write queue length does an incoming req see
system.mem_ctrls.wrQLenPdf::43                      0                       # What write queue length does an incoming req see
system.mem_ctrls.wrQLenPdf::44                      0                       # What write queue length does an incoming req see
system.mem_ctrls.wrQLenPdf::45                      0                       # What write queue length does an incoming req see
system.mem_ctrls.wrQLenPdf::46                      0                       # What write queue length does an incoming req see
system.mem_ctrls.wrQLenPdf::47                      0                       # What write queue length does an incoming req see
system.mem_ctrls.wrQLenPdf::48                      0                       # What write queue length does an incoming req see
system.mem_ctrls.wrQLenPdf::49                      0                       # What write queue length does an incoming req see
system.mem_ctrls.wrQLenPdf::50                      0                       # What write queue length does an incoming req see
system.mem_ctrls.wrQLenPdf::51                      0                       # What write queue length does an incoming req see
system.mem_ctrls.wrQLenPdf::52                      0                       # What write queue length does an incoming req see
system.mem_ctrls.wrQLenPdf::53                      0                       # What write queue length does an incoming req see
system.mem_ctrls.wrQLenPdf::54                      0                       # What write queue length does an incoming req see
system.mem_ctrls.wrQLenPdf::55                      0                       # What write queue length does an incoming req see
system.mem_ctrls.wrQLenPdf::56                      0                       # What write queue length does an incoming req see
system.mem_ctrls.wrQLenPdf::57                      0                       # What write queue length does an incoming req see
system.mem_ctrls.wrQLenPdf::58                      0                       # What write queue length does an incoming req see
system.mem_ctrls.wrQLenPdf::59                      0                       # What write queue length does an incoming req see
system.mem_ctrls.wrQLenPdf::60                      0                       # What write queue length does an incoming req see
system.mem_ctrls.wrQLenPdf::61                      0                       # What write queue length does an incoming req see
system.mem_ctrls.wrQLenPdf::62                      0                       # What write queue length does an incoming req see
system.mem_ctrls.wrQLenPdf::63                      0                       # What write queue length does an incoming req see
system.mem_ctrls.totQLat                            0                       # Total ticks spent queuing
system.mem_ctrls.totMemAccLat                       0                       # Total ticks spent from burst creation until serviced by the DRAM
system.mem_ctrls.totBusLat                          0                       # Total ticks spent in databus transfers
system.mem_ctrls.avgQLat                          nan                       # Average queueing delay per DRAM burst
system.mem_ctrls.avgBusLat                        nan                       # Average bus latency per DRAM burst
system.mem_ctrls.avgMemAccLat                     nan                       # Average memory access latency per DRAM burst
system.mem_ctrls.avgRdBW                         0.00                       # Average DRAM read bandwidth in MiByte/s
system.mem_ctrls.avgWrBW                         0.00                       # Average achieved write bandwidth in MiByte/s
system.mem_ctrls.avgRdBWSys                      0.00                       # Average system read bandwidth in MiByte/s
system.mem_ctrls.avgWrBWSys                      0.00                       # Average system write bandwidth in MiByte/s
system.mem_ctrls.peakBW                      12800.00                       # Theoretical peak bandwidth in MiByte/s
system.mem_ctrls.busUtil                         0.00                       # Data bus utilization in percentage
system.mem_ctrls.busUtilRead                     0.00                       # Data bus utilization in percentage for reads
system.mem_ctrls.busUtilWrite                    0.00                       # Data bus utilization in percentage for writes
system.mem_ctrls.avgRdQLen                       0.00                       # Average read queue length when enqueuing
system.mem_ctrls.avgWrQLen                       0.00                       # Average write queue length when enqueuing
system.mem_ctrls.readRowHits                        0                       # Number of row buffer hits during reads
system.mem_ctrls.writeRowHits                       0                       # Number of row buffer hits during writes
system.mem_ctrls.readRowHitRate                   nan                       # Row buffer hit rate for reads
system.mem_ctrls.writeRowHitRate                  nan                       # Row buffer hit rate for writes
system.mem_ctrls.avgGap                           nan                       # Average gap between requests
system.mem_ctrls.pageHitRate                      nan                       # Row buffer hit rate, read and write combined
system.mem_ctrls_0.actEnergy                        0                       # Energy for activate commands per rank (pJ)
system.mem_ctrls_0.preEnergy                        0                       # Energy for precharge commands per rank (pJ)
system.mem_ctrls_0.readEnergy                       0                       # Energy for read commands per rank (pJ)
system.mem_ctrls_0.writeEnergy                      0                       # Energy for write commands per rank (pJ)
system.mem_ctrls_0.refreshEnergy                    0                       # Energy for refresh commands per rank (pJ)
system.mem_ctrls_0.actBackEnergy                    0                       # Energy for active background per rank (pJ)
system.mem_ctrls_0.preBackEnergy                    0                       # Energy for precharge background per rank (pJ)
system.mem_ctrls_0.totalEnergy                      0                       # Total energy per rank (pJ)
system.mem_ctrls_0.averagePower                     0                       # Core power per rank (mW)
system.mem_ctrls_0.memoryStateTime::IDLE            0                       # Time in different power states
system.mem_ctrls_0.memoryStateTime::REF             0                       # Time in different power states
system.mem_ctrls_0.memoryStateTime::PRE_PDN            0                       # Time in different power states
system.mem_ctrls_0.memoryStateTime::ACT             0                       # Time in different power states
system.mem_ctrls_0.memoryStateTime::ACT_PDN            0                       # Time in different power states
system.mem_ctrls_1.actEnergy                        0                       # Energy for activate commands per rank (pJ)
system.mem_ctrls_1.preEnergy                        0                       # Energy for precharge commands per rank (pJ)
system.mem_ctrls_1.readEnergy                       0                       # Energy for read commands per rank (pJ)
system.mem_ctrls_1.writeEnergy                      0                       # Energy for write commands per rank (pJ)
system.mem_ctrls_1.refreshEnergy                    0                       # Energy for refresh commands per rank (pJ)
system.mem_ctrls_1.actBackEnergy                    0                       # Energy for active background per rank (pJ)
system.mem_ctrls_1.preBackEnergy                    0                       # Energy for precharge background per rank (pJ)
system.mem_ctrls_1.totalEnergy                      0                       # Total energy per rank (pJ)
system.mem_ctrls_1.averagePower                     0                       # Core power per rank (mW)
system.mem_ctrls_1.memoryStateTime::IDLE            0                       # Time in different power states
system.mem_ctrls_1.memoryStateTime::REF             0                       # Time in different power states
system.mem_ctrls_1.memoryStateTime::PRE_PDN            0                       # Time in different power states
system.mem_ctrls_1.memoryStateTime::ACT             0                       # Time in different power states
system.mem_ctrls_1.memoryStateTime::ACT_PDN            0                       # Time in different power states
system.cpu_voltage_domain.voltage                   1                       # Voltage in Volts
system.cpu_clk_domain.clock                       500                       # Clock period in ticks
system.cpu.apic_clk_domain.clock                 8000                       # Clock period in ticks
system.cpu.workload.num_syscalls                  146                       # Number of system calls
system.cpu.numCycles                        220286096                       # number of cpu cycles simulated
system.cpu.numWorkItemsStarted                      0                       # number of work items this cpu started
system.cpu.numWorkItemsCompleted                    0                       # number of work items this cpu completed
system.cpu.committedInsts                   100000000                       # Number of instructions committed
system.cpu.committedOps                     181133976                       # Number of ops (including micro ops) committed
system.cpu.num_int_alu_accesses             180945637                       # Number of integer alu accesses
system.cpu.num_fp_alu_accesses               66079645                       # Number of float alu accesses
system.cpu.num_func_calls                      481409                       # number of times a function call or return occured
system.cpu.num_conditional_control_insts     12357318                       # number of instructions that are conditional controls
system.cpu.num_int_insts                    180945637                       # number of integer instructions
system.cpu.num_fp_insts                      66079645                       # number of float instructions
system.cpu.num_int_register_reads           393189357                       # number of times the integer registers were read
system.cpu.num_int_register_writes           97341164                       # number of times the integer registers were written
system.cpu.num_fp_register_reads             66107541                       # number of times the floating registers were read
system.cpu.num_fp_register_writes               34696                       # number of times the floating registers were written
system.cpu.num_cc_register_reads             66390679                       # number of times the CC registers were read
system.cpu.num_cc_register_writes            58331018                       # number of times the CC registers were written
system.cpu.num_mem_refs                      85148908                       # number of memory refs
system.cpu.num_load_insts                    14663799                       # Number of load instructions
system.cpu.num_store_insts                   70485109                       # Number of store instructions
system.cpu.num_idle_cycles                          0                       # Number of idle cycles
system.cpu.num_busy_cycles                  220286096                       # Number of busy cycles
system.cpu.not_idle_fraction                        1                       # Percentage of non-idle cycles
system.cpu.idle_fraction                            0                       # Percentage of idle cycles
system.cpu.Branches                          13383360                       # Number of branches fetched
system.cpu.op_class::No_OpClass                 17651      0.01%      0.01% # Class of executed instruction
system.cpu.op_class::IntAlu                  95763299     52.87%     52.88% # Class of executed instruction
system.cpu.op_class::IntMult                    94292      0.05%     52.93% # Class of executed instruction
system.cpu.op_class::IntDiv                     79926      0.04%     52.97% # Class of executed instruction
system.cpu.op_class::FloatAdd                   29900      0.02%     52.99% # Class of executed instruction
system.cpu.op_class::FloatCmp                       0      0.00%     52.99% # Class of executed instruction
system.cpu.op_class::FloatCvt                       0      0.00%     52.99% # Class of executed instruction
system.cpu.op_class::FloatMult                      0      0.00%     52.99% # Class of executed instruction
system.cpu.op_class::FloatDiv                       0      0.00%     52.99% # Class of executed instruction
system.cpu.op_class::FloatSqrt                      0      0.00%     52.99% # Class of executed instruction
system.cpu.op_class::SimdAdd                        0      0.00%     52.99% # Class of executed instruction
system.cpu.op_class::SimdAddAcc                     0      0.00%     52.99% # Class of executed instruction
system.cpu.op_class::SimdAlu                        0      0.00%     52.99% # Class of executed instruction
system.cpu.op_class::SimdCmp                        0      0.00%     52.99% # Class of executed instruction
system.cpu.op_class::SimdCvt                        0      0.00%     52.99% # Class of executed instruction
system.cpu.op_class::SimdMisc                       0      0.00%     52.99% # Class of executed instruction
system.cpu.op_class::SimdMult                       0      0.00%     52.99% # Class of executed instruction
system.cpu.op_class::SimdMultAcc                    0      0.00%     52.99% # Class of executed instruction
system.cpu.op_class::SimdShift                      0      0.00%     52.99% # Class of executed instruction
system.cpu.op_class::SimdShiftAcc                   0      0.00%     52.99% # Class of executed instruction
system.cpu.op_class::SimdSqrt                       0      0.00%     52.99% # Class of executed instruction
system.cpu.op_class::SimdFloatAdd                   0      0.00%     52.99% # Class of executed instruction
system.cpu.op_class::SimdFloatAlu                   0      0.00%     52.99% # Class of executed instruction
system.cpu.op_class::SimdFloatCmp                   0      0.00%     52.99% # Class of executed instruction
system.cpu.op_class::SimdFloatCvt                   0      0.00%     52.99% # Class of executed instruction
system.cpu.op_class::SimdFloatDiv                   0      0.00%     52.99% # Class of executed instruction
system.cpu.op_class::SimdFloatMisc                  0      0.00%     52.99% # Class of executed instruction
system.cpu.op_class::SimdFloatMult                  0      0.00%     52.99% # Class of executed instruction
system.cpu.op_class::SimdFloatMultAcc               0      0.00%     52.99% # Class of executed instruction
system.cpu.op_class::SimdFloatSqrt                  0      0.00%     52.99% # Class of executed instruction
system.cpu.op_class::MemRead                 14663799      8.10%     61.09% # Class of executed instruction
system.cpu.op_class::MemWrite                70485109     38.91%    100.00% # Class of executed instruction
system.cpu.op_class::IprAccess                      0      0.00%    100.00% # Class of executed instruction
system.cpu.op_class::InstPrefetch                   0      0.00%    100.00% # Class of executed instruction
system.cpu.op_class::total                  181133976                       # Class of executed instruction
system.cpu.dcache.tags.replacements          66322282                       # number of replacements
system.cpu.dcache.tags.tagsinuse         16187.722362                       # Cycle average of tags in use
system.cpu.dcache.tags.total_refs            18811684                       # Total number of references to valid blocks.
system.cpu.dcache.tags.sampled_refs          66338666                       # Sample count of references to valid blocks.
system.cpu.dcache.tags.avg_refs              0.283570                       # Average number of references to valid blocks.
system.cpu.dcache.tags.warmup_cycle        3183909000                       # Cycle when the warmup percentage was hit.
system.cpu.dcache.tags.occ_blocks::cpu.data 16187.722362                       # Average occupied blocks per requestor
system.cpu.dcache.tags.occ_percent::cpu.data     0.988020                       # Average percentage of cache occupancy
system.cpu.dcache.tags.occ_percent::total     0.988020                       # Average percentage of cache occupancy
system.cpu.dcache.tags.occ_task_id_blocks::1024        16384                       # Occupied blocks per task id
system.cpu.dcache.tags.age_task_id_blocks_1024::0           11                       # Occupied blocks per task id
system.cpu.dcache.tags.age_task_id_blocks_1024::1           33                       # Occupied blocks per task id
system.cpu.dcache.tags.age_task_id_blocks_1024::2          166                       # Occupied blocks per task id
system.cpu.dcache.tags.age_task_id_blocks_1024::3         2572                       # Occupied blocks per task id
system.cpu.dcache.tags.age_task_id_blocks_1024::4        13602                       # Occupied blocks per task id
system.cpu.dcache.tags.occ_task_id_percent::1024            1                       # Percentage of cache occupancy per task id
system.cpu.dcache.tags.tag_accesses         151489016                       # Number of tag accesses
system.cpu.dcache.tags.data_accesses        151489016                       # Number of data accesses
system.cpu.dcache.ReadReq_hits::cpu.data     14647773                       # number of ReadReq hits
system.cpu.dcache.ReadReq_hits::total        14647773                       # number of ReadReq hits
system.cpu.dcache.WriteReq_hits::cpu.data      3403489                       # number of WriteReq hits
system.cpu.dcache.WriteReq_hits::total        3403489                       # number of WriteReq hits
system.cpu.dcache.WriteLineReq_hits::cpu.data       760422                       # number of WriteLineReq hits
system.cpu.dcache.WriteLineReq_hits::total       760422                       # number of WriteLineReq hits
system.cpu.dcache.demand_hits::cpu.data      18051262                       # number of demand (read+write) hits
system.cpu.dcache.demand_hits::total         18051262                       # number of demand (read+write) hits
system.cpu.dcache.overall_hits::cpu.data     18051262                       # number of overall hits
system.cpu.dcache.overall_hits::total        18051262                       # number of overall hits
system.cpu.dcache.ReadReq_misses::cpu.data        17405                       # number of ReadReq misses
system.cpu.dcache.ReadReq_misses::total         17405                       # number of ReadReq misses
system.cpu.dcache.WriteReq_misses::cpu.data        30759                       # number of WriteReq misses
system.cpu.dcache.WriteReq_misses::total        30759                       # number of WriteReq misses
system.cpu.dcache.WriteLineReq_misses::cpu.data     66290502                       # number of WriteLineReq misses
system.cpu.dcache.WriteLineReq_misses::total     66290502                       # number of WriteLineReq misses
system.cpu.dcache.demand_misses::cpu.data        48164                       # number of demand (read+write) misses
system.cpu.dcache.demand_misses::total          48164                       # number of demand (read+write) misses
system.cpu.dcache.overall_misses::cpu.data        48164                       # number of overall misses
system.cpu.dcache.overall_misses::total         48164                       # number of overall misses
system.cpu.dcache.ReadReq_accesses::cpu.data     14665178                       # number of ReadReq accesses(hits+misses)
system.cpu.dcache.ReadReq_accesses::total     14665178                       # number of ReadReq accesses(hits+misses)
system.cpu.dcache.WriteReq_accesses::cpu.data      3434248                       # number of WriteReq accesses(hits+misses)
system.cpu.dcache.WriteReq_accesses::total      3434248                       # number of WriteReq accesses(hits+misses)
system.cpu.dcache.WriteLineReq_accesses::cpu.data     67050924                       # number of WriteLineReq accesses(hits+misses)
system.cpu.dcache.WriteLineReq_accesses::total     67050924                       # number of WriteLineReq accesses(hits+misses)
system.cpu.dcache.demand_accesses::cpu.data     18099426                       # number of demand (read+write) accesses
system.cpu.dcache.demand_accesses::total     18099426                       # number of demand (read+write) accesses
system.cpu.dcache.overall_accesses::cpu.data     18099426                       # number of overall (read+write) accesses
system.cpu.dcache.overall_accesses::total     18099426                       # number of overall (read+write) accesses
system.cpu.dcache.ReadReq_miss_rate::cpu.data     0.001187                       # miss rate for ReadReq accesses
system.cpu.dcache.ReadReq_miss_rate::total     0.001187                       # miss rate for ReadReq accesses
system.cpu.dcache.WriteReq_miss_rate::cpu.data     0.008957                       # miss rate for WriteReq accesses
system.cpu.dcache.WriteReq_miss_rate::total     0.008957                       # miss rate for WriteReq accesses
system.cpu.dcache.WriteLineReq_miss_rate::cpu.data     0.988659                       # miss rate for WriteLineReq accesses
system.cpu.dcache.WriteLineReq_miss_rate::total     0.988659                       # miss rate for WriteLineReq accesses
system.cpu.dcache.demand_miss_rate::cpu.data     0.002661                       # miss rate for demand accesses
system.cpu.dcache.demand_miss_rate::total     0.002661                       # miss rate for demand accesses
system.cpu.dcache.overall_miss_rate::cpu.data     0.002661                       # miss rate for overall accesses
system.cpu.dcache.overall_miss_rate::total     0.002661                       # miss rate for overall accesses
system.cpu.dcache.blocked_cycles::no_mshrs            0                       # number of cycles access was blocked
system.cpu.dcache.blocked_cycles::no_targets            0                       # number of cycles access was blocked
system.cpu.dcache.blocked::no_mshrs                 0                       # number of cycles access was blocked
system.cpu.dcache.blocked::no_targets               0                       # number of cycles access was blocked
system.cpu.dcache.avg_blocked_cycles::no_mshrs          nan                       # average number of cycles each access was blocked
system.cpu.dcache.avg_blocked_cycles::no_targets          nan                       # average number of cycles each access was blocked
system.cpu.dcache.fast_writes                       0                       # number of fast writes performed
system.cpu.dcache.cache_copies                      0                       # number of cache copies performed
system.cpu.dcache.writebacks::writebacks     66314904                       # number of writebacks
system.cpu.dcache.writebacks::total          66314904                       # number of writebacks
system.cpu.dcache.no_allocate_misses                0                       # Number of misses that were no-allocate
system.cpu.dtb_walker_cache.tags.replacements            0                       # number of replacements
system.cpu.dtb_walker_cache.tags.tagsinuse            0                       # Cycle average of tags in use
system.cpu.dtb_walker_cache.tags.total_refs            0                       # Total number of references to valid blocks.
system.cpu.dtb_walker_cache.tags.sampled_refs            0                       # Sample count of references to valid blocks.
system.cpu.dtb_walker_cache.tags.avg_refs          nan                       # Average number of references to valid blocks.
system.cpu.dtb_walker_cache.tags.warmup_cycle            0                       # Cycle when the warmup percentage was hit.
system.cpu.dtb_walker_cache.tags.tag_accesses            0                       # Number of tag accesses
system.cpu.dtb_walker_cache.tags.data_accesses            0                       # Number of data accesses
system.cpu.dtb_walker_cache.blocked_cycles::no_mshrs            0                       # number of cycles access was blocked
system.cpu.dtb_walker_cache.blocked_cycles::no_targets            0                       # number of cycles access was blocked
system.cpu.dtb_walker_cache.blocked::no_mshrs            0                       # number of cycles access was blocked
system.cpu.dtb_walker_cache.blocked::no_targets            0                       # number of cycles access was blocked
system.cpu.dtb_walker_cache.avg_blocked_cycles::no_mshrs          nan                       # average number of cycles each access was blocked
system.cpu.dtb_walker_cache.avg_blocked_cycles::no_targets          nan                       # average number of cycles each access was blocked
system.cpu.dtb_walker_cache.fast_writes             0                       # number of fast writes performed
system.cpu.dtb_walker_cache.cache_copies            0                       # number of cache copies performed
system.cpu.dtb_walker_cache.no_allocate_misses            0                       # Number of misses that were no-allocate
system.cpu.icache.tags.replacements              7167                       # number of replacements
system.cpu.icache.tags.tagsinuse          4730.927677                       # Cycle average of tags in use
system.cpu.icache.tags.total_refs           139136148                       # Total number of references to valid blocks.
system.cpu.icache.tags.sampled_refs             15973                       # Sample count of references to valid blocks.
system.cpu.icache.tags.avg_refs           8710.708571                       # Average number of references to valid blocks.
system.cpu.icache.tags.warmup_cycle                 0                       # Cycle when the warmup percentage was hit.
system.cpu.icache.tags.occ_blocks::cpu.inst  4730.927677                       # Average occupied blocks per requestor
system.cpu.icache.tags.occ_percent::cpu.inst     0.288753                       # Average percentage of cache occupancy
system.cpu.icache.tags.occ_percent::total     0.288753                       # Average percentage of cache occupancy
system.cpu.icache.tags.occ_task_id_blocks::1024         8806                       # Occupied blocks per task id
system.cpu.icache.tags.age_task_id_blocks_1024::3          204                       # Occupied blocks per task id
system.cpu.icache.tags.age_task_id_blocks_1024::4         8602                       # Occupied blocks per task id
system.cpu.icache.tags.occ_task_id_percent::1024     0.537476                       # Percentage of cache occupancy per task id
system.cpu.icache.tags.tag_accesses         139168094                       # Number of tag accesses
system.cpu.icache.tags.data_accesses        139168094                       # Number of data accesses
system.cpu.icache.ReadReq_hits::cpu.inst    139136148                       # number of ReadReq hits
system.cpu.icache.ReadReq_hits::total       139136148                       # number of ReadReq hits
system.cpu.icache.demand_hits::cpu.inst     139136148                       # number of demand (read+write) hits
system.cpu.icache.demand_hits::total        139136148                       # number of demand (read+write) hits
system.cpu.icache.overall_hits::cpu.inst    139136148                       # number of overall hits
system.cpu.icache.overall_hits::total       139136148                       # number of overall hits
system.cpu.icache.ReadReq_misses::cpu.inst        15973                       # number of ReadReq misses
system.cpu.icache.ReadReq_misses::total         15973                       # number of ReadReq misses
system.cpu.icache.demand_misses::cpu.inst        15973                       # number of demand (read+write) misses
system.cpu.icache.demand_misses::total          15973                       # number of demand (read+write) misses
system.cpu.icache.overall_misses::cpu.inst        15973                       # number of overall misses
system.cpu.icache.overall_misses::total         15973                       # number of overall misses
system.cpu.icache.ReadReq_accesses::cpu.inst    139152121                       # number of ReadReq accesses(hits+misses)
system.cpu.icache.ReadReq_accesses::total    139152121                       # number of ReadReq accesses(hits+misses)
system.cpu.icache.demand_accesses::cpu.inst    139152121                       # number of demand (read+write) accesses
system.cpu.icache.demand_accesses::total    139152121                       # number of demand (read+write) accesses
system.cpu.icache.overall_accesses::cpu.inst    139152121                       # number of overall (read+write) accesses
system.cpu.icache.overall_accesses::total    139152121                       # number of overall (read+write) accesses
system.cpu.icache.ReadReq_miss_rate::cpu.inst     0.000115                       # miss rate for ReadReq accesses
system.cpu.icache.ReadReq_miss_rate::total     0.000115                       # miss rate for ReadReq accesses
system.cpu.icache.demand_miss_rate::cpu.inst     0.000115                       # miss rate for demand accesses
system.cpu.icache.demand_miss_rate::total     0.000115                       # miss rate for demand accesses
system.cpu.icache.overall_miss_rate::cpu.inst     0.000115                       # miss rate for overall accesses
system.cpu.icache.overall_miss_rate::total     0.000115                       # miss rate for overall accesses
system.cpu.icache.blocked_cycles::no_mshrs            0                       # number of cycles access was blocked
system.cpu.icache.blocked_cycles::no_targets            0                       # number of cycles access was blocked
system.cpu.icache.blocked::no_mshrs                 0                       # number of cycles access was blocked
system.cpu.icache.blocked::no_targets               0                       # number of cycles access was blocked
system.cpu.icache.avg_blocked_cycles::no_mshrs          nan                       # average number of cycles each access was blocked
system.cpu.icache.avg_blocked_cycles::no_targets          nan                       # average number of cycles each access was blocked
system.cpu.icache.fast_writes                       0                       # number of fast writes performed
system.cpu.icache.cache_copies                      0                       # number of cache copies performed
system.cpu.icache.writebacks::writebacks         7167                       # number of writebacks
system.cpu.icache.writebacks::total              7167                       # number of writebacks
system.cpu.icache.no_allocate_misses                0                       # Number of misses that were no-allocate
system.cpu.itb_walker_cache.tags.replacements            0                       # number of replacements
system.cpu.itb_walker_cache.tags.tagsinuse            0                       # Cycle average of tags in use
system.cpu.itb_walker_cache.tags.total_refs            0                       # Total number of references to valid blocks.
system.cpu.itb_walker_cache.tags.sampled_refs            0                       # Sample count of references to valid blocks.
system.cpu.itb_walker_cache.tags.avg_refs          nan                       # Average number of references to valid blocks.
system.cpu.itb_walker_cache.tags.warmup_cycle            0                       # Cycle when the warmup percentage was hit.
system.cpu.itb_walker_cache.tags.tag_accesses            0                       # Number of tag accesses
system.cpu.itb_walker_cache.tags.data_accesses            0                       # Number of data accesses
system.cpu.itb_walker_cache.blocked_cycles::no_mshrs            0                       # number of cycles access was blocked
system.cpu.itb_walker_cache.blocked_cycles::no_targets            0                       # number of cycles access was blocked
system.cpu.itb_walker_cache.blocked::no_mshrs            0                       # number of cycles access was blocked
system.cpu.itb_walker_cache.blocked::no_targets            0                       # number of cycles access was blocked
system.cpu.itb_walker_cache.avg_blocked_cycles::no_mshrs          nan                       # average number of cycles each access was blocked
system.cpu.itb_walker_cache.avg_blocked_cycles::no_targets          nan                       # average number of cycles each access was blocked
system.cpu.itb_walker_cache.fast_writes             0                       # number of fast writes performed
system.cpu.itb_walker_cache.cache_copies            0                       # number of cache copies performed
system.cpu.itb_walker_cache.no_allocate_misses            0                       # Number of misses that were no-allocate
system.l2.tags.replacements                  66195885                       # number of replacements
system.l2.tags.tagsinuse                 126571.258015                       # Cycle average of tags in use
system.l2.tags.total_refs                       35589                       # Total number of references to valid blocks.
system.l2.tags.sampled_refs                  66323313                       # Sample count of references to valid blocks.
system.l2.tags.avg_refs                      0.000537                       # Average number of references to valid blocks.
system.l2.tags.warmup_cycle                3331235000                       # Cycle when the warmup percentage was hit.
system.l2.tags.occ_blocks::writebacks    123993.183579                       # Average occupied blocks per requestor
system.l2.tags.occ_blocks::cpu.inst       1583.618356                       # Average occupied blocks per requestor
system.l2.tags.occ_blocks::cpu.data        994.456080                       # Average occupied blocks per requestor
system.l2.tags.occ_percent::writebacks       0.945993                       # Average percentage of cache occupancy
system.l2.tags.occ_percent::cpu.inst         0.012082                       # Average percentage of cache occupancy
system.l2.tags.occ_percent::cpu.data         0.007587                       # Average percentage of cache occupancy
system.l2.tags.occ_percent::total            0.965662                       # Average percentage of cache occupancy
system.l2.tags.occ_task_id_blocks::1024        127428                       # Occupied blocks per task id
system.l2.tags.age_task_id_blocks_1024::0           13                       # Occupied blocks per task id
system.l2.tags.age_task_id_blocks_1024::1           29                       # Occupied blocks per task id
system.l2.tags.age_task_id_blocks_1024::2          151                       # Occupied blocks per task id
system.l2.tags.age_task_id_blocks_1024::3         3196                       # Occupied blocks per task id
system.l2.tags.age_task_id_blocks_1024::4       124039                       # Occupied blocks per task id
system.l2.tags.occ_task_id_percent::1024     0.972198                       # Percentage of cache occupancy per task id
system.l2.tags.tag_accesses                 199039650                       # Number of tag accesses
system.l2.tags.data_accesses                199039650                       # Number of data accesses
system.l2.WritebackDirty_hits::writebacks     66314904                       # number of WritebackDirty hits
system.l2.WritebackDirty_hits::total         66314904                       # number of WritebackDirty hits
system.l2.WritebackClean_hits::writebacks         7167                       # number of WritebackClean hits
system.l2.WritebackClean_hits::total             7167                       # number of WritebackClean hits
system.l2.ReadExReq_hits::cpu.data               4833                       # number of ReadExReq hits
system.l2.ReadExReq_hits::total                  4833                       # number of ReadExReq hits
system.l2.ReadCleanReq_hits::cpu.inst            5877                       # number of ReadCleanReq hits
system.l2.ReadCleanReq_hits::total               5877                       # number of ReadCleanReq hits
system.l2.ReadSharedReq_hits::cpu.data           9239                       # number of ReadSharedReq hits
system.l2.ReadSharedReq_hits::total              9239                       # number of ReadSharedReq hits
system.l2.InvalidateReq_hits::cpu.data           1490                       # number of InvalidateReq hits
system.l2.InvalidateReq_hits::total              1490                       # number of InvalidateReq hits
system.l2.demand_hits::cpu.inst                  5877                       # number of demand (read+write) hits
system.l2.demand_hits::cpu.data                 14072                       # number of demand (read+write) hits
system.l2.demand_hits::total                    19949                       # number of demand (read+write) hits
system.l2.overall_hits::cpu.inst                 5877                       # number of overall hits
system.l2.overall_hits::cpu.data                14072                       # number of overall hits
system.l2.overall_hits::total                   19949                       # number of overall hits
system.l2.ReadExReq_misses::cpu.data            25926                       # number of ReadExReq misses
system.l2.ReadExReq_misses::total               25926                       # number of ReadExReq misses
system.l2.ReadCleanReq_misses::cpu.inst         10096                       # number of ReadCleanReq misses
system.l2.ReadCleanReq_misses::total            10096                       # number of ReadCleanReq misses
system.l2.ReadSharedReq_misses::cpu.data         8166                       # number of ReadSharedReq misses
system.l2.ReadSharedReq_misses::total            8166                       # number of ReadSharedReq misses
system.l2.InvalidateReq_misses::cpu.data     66289012                       # number of InvalidateReq misses
system.l2.InvalidateReq_misses::total        66289012                       # number of InvalidateReq misses
system.l2.demand_misses::cpu.inst               10096                       # number of demand (read+write) misses
system.l2.demand_misses::cpu.data               34092                       # number of demand (read+write) misses
system.l2.demand_misses::total                  44188                       # number of demand (read+write) misses
system.l2.overall_misses::cpu.inst              10096                       # number of overall misses
system.l2.overall_misses::cpu.data              34092                       # number of overall misses
system.l2.overall_misses::total                 44188                       # number of overall misses
system.l2.WritebackDirty_accesses::writebacks     66314904                       # number of WritebackDirty accesses(hits+misses)
system.l2.WritebackDirty_accesses::total     66314904                       # number of WritebackDirty accesses(hits+misses)
system.l2.WritebackClean_accesses::writebacks         7167                       # number of WritebackClean accesses(hits+misses)
system.l2.WritebackClean_accesses::total         7167                       # number of WritebackClean accesses(hits+misses)
system.l2.ReadExReq_accesses::cpu.data          30759                       # number of ReadExReq accesses(hits+misses)
system.l2.ReadExReq_accesses::total             30759                       # number of ReadExReq accesses(hits+misses)
system.l2.ReadCleanReq_accesses::cpu.inst        15973                       # number of ReadCleanReq accesses(hits+misses)
system.l2.ReadCleanReq_accesses::total          15973                       # number of ReadCleanReq accesses(hits+misses)
system.l2.ReadSharedReq_accesses::cpu.data        17405                       # number of ReadSharedReq accesses(hits+misses)
system.l2.ReadSharedReq_accesses::total         17405                       # number of ReadSharedReq accesses(hits+misses)
system.l2.InvalidateReq_accesses::cpu.data     66290502                       # number of InvalidateReq accesses(hits+misses)
system.l2.InvalidateReq_accesses::total      66290502                       # number of InvalidateReq accesses(hits+misses)
system.l2.demand_accesses::cpu.inst             15973                       # number of demand (read+write) accesses
system.l2.demand_accesses::cpu.data             48164                       # number of demand (read+write) accesses
system.l2.demand_accesses::total                64137                       # number of demand (read+write) accesses
system.l2.overall_accesses::cpu.inst            15973                       # number of overall (read+write) accesses
system.l2.overall_accesses::cpu.data            48164                       # number of overall (read+write) accesses
system.l2.overall_accesses::total               64137                       # number of overall (read+write) accesses
system.l2.ReadExReq_miss_rate::cpu.data      0.842875                       # miss rate for ReadExReq accesses
system.l2.ReadExReq_miss_rate::total         0.842875                       # miss rate for ReadExReq accesses
system.l2.ReadCleanReq_miss_rate::cpu.inst     0.632067                       # miss rate for ReadCleanReq accesses
system.l2.ReadCleanReq_miss_rate::total      0.632067                       # miss rate for ReadCleanReq accesses
system.l2.ReadSharedReq_miss_rate::cpu.data     0.469176                       # miss rate for ReadSharedReq accesses
system.l2.ReadSharedReq_miss_rate::total     0.469176                       # miss rate for ReadSharedReq accesses
system.l2.InvalidateReq_miss_rate::cpu.data     0.999978                       # miss rate for InvalidateReq accesses
system.l2.InvalidateReq_miss_rate::total     0.999978                       # miss rate for InvalidateReq accesses
system.l2.demand_miss_rate::cpu.inst         0.632067                       # miss rate for demand accesses
system.l2.demand_miss_rate::cpu.data         0.707832                       # miss rate for demand accesses
system.l2.demand_miss_rate::total            0.688963                       # miss rate for demand accesses
system.l2.overall_miss_rate::cpu.inst        0.632067                       # miss rate for overall accesses
system.l2.overall_miss_rate::cpu.data        0.707832                       # miss rate for overall accesses
system.l2.overall_miss_rate::total           0.688963                       # miss rate for overall accesses
system.l2.blocked_cycles::no_mshrs                  0                       # number of cycles access was blocked
system.l2.blocked_cycles::no_targets                0                       # number of cycles access was blocked
system.l2.blocked::no_mshrs                         0                       # number of cycles access was blocked
system.l2.blocked::no_targets                       0                       # number of cycles access was blocked
system.l2.avg_blocked_cycles::no_mshrs            nan                       # average number of cycles each access was blocked
system.l2.avg_blocked_cycles::no_targets          nan                       # average number of cycles each access was blocked
system.l2.fast_writes                               0                       # number of fast writes performed
system.l2.cache_copies                              0                       # number of cache copies performed
system.l2.writebacks::writebacks             66187344                       # number of writebacks
system.l2.writebacks::total                  66187344                       # number of writebacks
system.l2.no_allocate_misses                        0                       # Number of misses that were no-allocate
system.membus.trans_dist::ReadResp              18262                       # Transaction distribution
system.membus.trans_dist::WritebackDirty     66187344                       # Transaction distribution
system.membus.trans_dist::CleanEvict             2007                       # Transaction distribution
system.membus.trans_dist::ReadExReq          66314938                       # Transaction distribution
system.membus.trans_dist::ReadExResp         66314938                       # Transaction distribution
system.membus.trans_dist::ReadSharedReq         18262                       # Transaction distribution
system.membus.pkt_count_system.l2.mem_side::system.mem_ctrls.port    198855751                       # Packet count per connected master and slave (bytes)
system.membus.pkt_count_system.l2.mem_side::total    198855751                       # Packet count per connected master and slave (bytes)
system.membus.pkt_count::total              198855751                       # Packet count per connected master and slave (bytes)
system.membus.pkt_size_system.l2.mem_side::system.mem_ctrls.port   1060164352                       # Cumulative packet size per connected master and slave (bytes)
system.membus.pkt_size_system.l2.mem_side::total   1060164352                       # Cumulative packet size per connected master and slave (bytes)
system.membus.pkt_size::total              1060164352                       # Cumulative packet size per connected master and slave (bytes)
system.membus.snoops                                0                       # Total snoops (count)
system.membus.snoop_fanout::samples         132522551                       # Request fanout histogram
system.membus.snoop_fanout::mean                    0                       # Request fanout histogram
system.membus.snoop_fanout::stdev                   0                       # Request fanout histogram
system.membus.snoop_fanout::underflows              0      0.00%      0.00% # Request fanout histogram
system.membus.snoop_fanout::0               132522551    100.00%    100.00% # Request fanout histogram
system.membus.snoop_fanout::1                       0      0.00%    100.00% # Request fanout histogram
system.membus.snoop_fanout::overflows               0      0.00%    100.00% # Request fanout histogram
system.membus.snoop_fanout::min_value               0                       # Request fanout histogram
system.membus.snoop_fanout::max_value               0                       # Request fanout histogram
system.membus.snoop_fanout::total           132522551                       # Request fanout histogram
system.tol2bus.snoop_filter.tot_requests    132684088                       # Total number of requests made to the snoop filter.
system.tol2bus.snoop_filter.hit_single_requests     66329449                       # Number of requests hitting in the snoop filter with a single holder of the requested data.
system.tol2bus.snoop_filter.hit_multi_requests            0                       # Number of requests hitting in the snoop filter with multiple (>1) holders of the requested data.
system.tol2bus.snoop_filter.tot_snoops           7305                       # Total number of snoops made to the snoop filter.
system.tol2bus.snoop_filter.hit_single_snoops         7305                       # Number of snoops hitting in the snoop filter with a single holder of the requested data.
system.tol2bus.snoop_filter.hit_multi_snoops            0                       # Number of snoops hitting in the snoop filter with multiple (>1) holders of the requested data.
system.tol2bus.trans_dist::ReadResp             33378                       # Transaction distribution
system.tol2bus.trans_dist::WritebackDirty     66314904                       # Transaction distribution
system.tol2bus.trans_dist::WritebackClean         7167                       # Transaction distribution
system.tol2bus.trans_dist::CleanEvict            7378                       # Transaction distribution
system.tol2bus.trans_dist::ReadExReq            30759                       # Transaction distribution
system.tol2bus.trans_dist::ReadExResp           30759                       # Transaction distribution
system.tol2bus.trans_dist::ReadCleanReq         15973                       # Transaction distribution
system.tol2bus.trans_dist::ReadSharedReq        17405                       # Transaction distribution
system.tol2bus.trans_dist::InvalidateReq     66290502                       # Transaction distribution
system.tol2bus.trans_dist::InvalidateResp     66290502                       # Transaction distribution
system.tol2bus.pkt_count_system.cpu.icache.mem_side::system.l2.cpu_side        39113                       # Packet count per connected master and slave (bytes)
system.tol2bus.pkt_count_system.cpu.dcache.mem_side::system.l2.cpu_side    198999614                       # Packet count per connected master and slave (bytes)
system.tol2bus.pkt_count::total             199038727                       # Packet count per connected master and slave (bytes)
system.tol2bus.pkt_size_system.cpu.icache.mem_side::system.l2.cpu_side       185120                       # Cumulative packet size per connected master and slave (bytes)
system.tol2bus.pkt_size_system.cpu.dcache.mem_side::system.l2.cpu_side    530904544                       # Cumulative packet size per connected master and slave (bytes)
system.tol2bus.pkt_size::total              531089664                       # Cumulative packet size per connected master and slave (bytes)
system.tol2bus.snoops                        66195885                       # Total snoops (count)
system.tol2bus.snoop_fanout::samples        198879973                       # Request fanout histogram
system.tol2bus.snoop_fanout::mean            0.000037                       # Request fanout histogram
system.tol2bus.snoop_fanout::stdev           0.006060                       # Request fanout histogram
system.tol2bus.snoop_fanout::underflows             0      0.00%      0.00% # Request fanout histogram
system.tol2bus.snoop_fanout::0              198872668    100.00%    100.00% # Request fanout histogram
system.tol2bus.snoop_fanout::1                   7305      0.00%    100.00% # Request fanout histogram
system.tol2bus.snoop_fanout::2                      0      0.00%    100.00% # Request fanout histogram
system.tol2bus.snoop_fanout::3                      0      0.00%    100.00% # Request fanout histogram
system.tol2bus.snoop_fanout::4                      0      0.00%    100.00% # Request fanout histogram
system.tol2bus.snoop_fanout::overflows              0      0.00%    100.00% # Request fanout histogram
system.tol2bus.snoop_fanout::min_value              0                       # Request fanout histogram
system.tol2bus.snoop_fanout::max_value              1                       # Request fanout histogram
system.tol2bus.snoop_fanout::total          198879973                       # Request fanout histogram

---------- End Simulation Statistics   ----------
